xflr5 v6.61

Plane name :        c90_s0_+2_twist
Polar name :        T1-43.0 m/s-LLT-160.0kg-x0.0m
Freestream speed :  43.000 m/s


   alpha      Beta       CL          CDi        CDv        CD         CY         Cl         Cm         Cn        Cni       QInf        XCP
   -2.000     0.000   0.026226   0.000160   0.008890   0.009050   0.000000  -0.000000  -0.023672  -0.000000   0.000000   43.0000     0.4871
   -1.500     0.000   0.072326   0.000295   0.008449   0.008744   0.000000  -0.000000  -0.039441  -0.000000   0.000000   43.0000     0.2924
   -1.000     0.000   0.117823   0.000542   0.008109   0.008651   0.000000  -0.000000  -0.055077  -0.000000   0.000000   43.0000     0.2599
   -0.500     0.000   0.164356   0.000897   0.008004   0.008901   0.000000  -0.000000  -0.071033  -0.000000   0.000000   43.0000     0.2418
    0.000     0.000   0.211260   0.001363   0.008005   0.009368   0.000000  -0.000000  -0.087087  -0.000000   0.000000   43.0000     0.2323
    0.500     0.000   0.258255   0.001941   0.008066   0.010007   0.000000   0.000000  -0.103140  -0.000000  -0.000000   43.0000     0.2263
    1.000     0.000   0.305139   0.002630   0.008170   0.010801   0.000000  -0.000000  -0.119074  -0.000000  -0.000000   43.0000     0.2221
    1.500     0.000   0.352424   0.003435   0.008315   0.011750   0.000000  -0.000000  -0.135193  -0.000000  -0.000000   43.0000     0.2191
    2.000     0.000   0.400285   0.004358   0.008485   0.012843   0.000000   0.000000  -0.151567  -0.000000  -0.000000   43.0000     0.2169
    2.500     0.000   0.448605   0.005403   0.008666   0.014069   0.000000  -0.000000  -0.168131  -0.000000  -0.000000   43.0000     0.2152
    3.000     0.000   0.497747   0.006577   0.008859   0.015436   0.000000  -0.000000  -0.185080  -0.000000  -0.000000   43.0000     0.2140
    3.500     0.000   0.548123   0.007895   0.009060   0.016955   0.000000   0.000000  -0.202650  -0.000000  -0.000000   43.0000     0.2133
    4.000     0.000   0.599719   0.009371   0.009275   0.018645   0.000000  -0.000000  -0.220896  -0.000000  -0.000000   43.0000     0.2129
    4.500     0.000   0.652358   0.011002   0.009503   0.020504   0.000000  -0.000000  -0.239731  -0.000000  -0.000000   43.0000     0.2128
    5.000     0.000   0.704867   0.012785   0.009735   0.022519   0.000000  -0.000000  -0.258558  -0.000000  -0.000000   43.0000     0.2127
    5.500     0.000   0.757368   0.014670   0.009984   0.024654   0.000000  -0.000000  -0.277418  -0.000000  -0.000000   43.0000     0.2125
    6.000     0.000   0.808942   0.016674   0.010245   0.026918   0.000000  -0.000000  -0.295833  -0.000000  -0.000000   43.0000     0.2122
    6.500     0.000   0.859188   0.018761   0.010511   0.029273   0.000000  -0.000000  -0.313672  -0.000000  -0.000000   43.0000     0.2118
    7.000     0.000   0.907591   0.020909   0.010801   0.031709   0.000000  -0.000000  -0.330674  -0.000000  -0.000000   43.0000     0.2112
    7.500     0.000   0.951727   0.022988   0.011103   0.034091   0.000000   0.000000  -0.345395  -0.000000  -0.000000   43.0000     0.2101
    8.000     0.000   0.994759   0.025137   0.011427   0.036564   0.000000  -0.000000  -0.359590  -0.000000  -0.000000   43.0000     0.2089
    8.500     0.000   1.037759   0.027368   0.011777   0.039145   0.000000  -0.000000  -0.373749  -0.000000  -0.000000   43.0000     0.2078
    9.000     0.000   1.080722   0.029687   0.012159   0.041846   0.000000   0.000000  -0.387885  -0.000000  -0.000000   43.0000     0.2067
    9.500     0.000   1.123618   0.032092   0.012572   0.044664   0.000000   0.000000  -0.401986  -0.000000  -0.000000   43.0000     0.2057
   10.000     0.000   1.166425   0.034581   0.013019   0.047600   0.000000   0.000000  -0.416042  -0.000000  -0.000000   43.0000     0.2048
   10.500     0.000   1.209100   0.037140   0.013512   0.050653   0.000000   0.000000  -0.430027  -0.000000  -0.000000   43.0000     0.2038
   11.000     0.000   1.251316   0.039768   0.014058   0.053827   0.000000  -0.000000  -0.443794  -0.000000  -0.000000   43.0000     0.2029
   11.500     0.000   1.292654   0.042433   0.014684   0.057118   0.000000  -0.000000  -0.457143  -0.000000  -0.000000   43.0000     0.2019
   12.000     0.000   1.332950   0.045117   0.015389   0.060506   0.000000  -0.000000  -0.469999  -0.000000  -0.000000   43.0000     0.2010
   12.500     0.000   1.371667   0.047782   0.016200   0.063982   0.000000  -0.000000  -0.482117  -0.000000  -0.000000   43.0000     0.1999
   13.000     0.000   1.408526   0.050401   0.017123   0.067525   0.000000   0.000000  -0.493365  -0.000000  -0.000000   43.0000     0.1988
   13.500     0.000   1.443466   0.052954   0.018133   0.071087   0.000000  -0.000000  -0.503705  -0.000000  -0.000000   43.0000     0.1976
   14.000     0.000   1.475294   0.055363   0.019229   0.074592   0.000000   0.000000  -0.512497  -0.000000  -0.000000   43.0000     0.1962
   14.500     0.000   1.502264   0.057463   0.020462   0.077925   0.000000   0.000000  -0.518824  -0.000000  -0.000000   43.0000     0.1945
   15.000     0.000   1.525068   0.059291   0.021934   0.081225   0.000000   0.000000  -0.523616  -0.000000  -0.000000   43.0000     0.1927
   15.500     0.000   1.543929   0.060882   0.023773   0.084655   0.000000   0.000000  -0.527220  -0.000000  -0.000000   43.0000     0.1910
   16.000     0.000   1.134870   0.091359   0.015062   0.106421   0.000000  -0.000000  -0.422483  -0.000000  -0.000000   43.0000     0.1947
   16.500     0.000   1.154310   0.094602   0.015985   0.110587   0.000000  -0.000000  -0.427291  -0.000000  -0.000000   43.0000     0.1932
   17.000     0.000   1.171347   0.097615   0.017146   0.114761   0.000000  -0.000000  -0.431235  -0.000000  -0.000000   43.0000     0.1916
   17.500     0.000   1.186077   0.100342   0.018650   0.118992   0.000000  -0.000000  -0.434581  -0.000000  -0.000000   43.0000     0.1902
   18.000     0.000   1.197183   0.102593   0.020777   0.123370   0.000000  -0.000000  -0.437125  -0.000000  -0.000000   43.0000     0.1891
   18.500     0.000   0.650590   0.113927   0.007340   0.121267   0.000000   0.000000  -0.229193  -0.000000  -0.000000   43.0000     0.2048
   19.000     0.000   0.665353   0.119097   0.007532   0.126629   0.000000   0.000000  -0.233977  -0.000000  -0.000000   43.0000     0.2042
   19.500     0.000   0.679823   0.124335   0.007744   0.132079   0.000000   0.000000  -0.238639  -0.000000  -0.000000   43.0000     0.2036
   20.000     0.000   0.694166   0.129648   0.007971   0.137618   0.000000   0.000000  -0.243240  -0.000000  -0.000000   43.0000     0.2031


