xflr5 v6.61

Plane name :        c90_s0_-1_twist
Polar name :        T1-43.0 m/s-LLT-160.0kg-x0.0m
Freestream speed :  43.000 m/s


   alpha      Beta       CL          CDi        CDv        CD         CY         Cl         Cm         Cn        Cni       QInf        XCP
   -2.000     0.000  -0.122717   0.000458   0.007959   0.008417   0.000000   0.000000   0.032563   0.000000   0.000000   43.0000     0.1424
   -1.500     0.000  -0.076065   0.000221   0.008258   0.008479   0.000000  -0.000000   0.016963  -0.000000  -0.000000   43.0000     0.1038
   -1.000     0.000  -0.032264   0.000093   0.008813   0.008906   0.000000   0.000000   0.002820  -0.000000   0.000000   43.0000     0.0069
   -0.500     0.000   0.014225   0.000047   0.008568   0.008615   0.000000  -0.000000  -0.013214  -0.000000   0.000000   43.0000     0.3770
    0.000     0.000   0.059275   0.000108   0.008136   0.008243   0.000000  -0.000000  -0.028533  -0.000000  -0.000000   43.0000     0.3492
    0.500     0.000   0.105798   0.000282   0.008002   0.008284   0.000000   0.000000  -0.044426  -0.000000  -0.000000   43.0000     0.2639
    1.000     0.000   0.152775   0.000570   0.007983   0.008553   0.000000   0.000000  -0.060485  -0.000000  -0.000000   43.0000     0.2434
    1.500     0.000   0.199937   0.000972   0.008029   0.009001   0.000000   0.000000  -0.076587  -0.000000  -0.000000   43.0000     0.2331
    2.000     0.000   0.247177   0.001490   0.008117   0.009607   0.000000   0.000000  -0.092674  -0.000000  -0.000000   43.0000     0.2267
    2.500     0.000   0.294729   0.002126   0.008233   0.010360   0.000000   0.000000  -0.108841  -0.000000  -0.000000   43.0000     0.2223
    3.000     0.000   0.342897   0.002888   0.008378   0.011266   0.000000   0.000000  -0.125300  -0.000000  -0.000000   43.0000     0.2194
    3.500     0.000   0.391785   0.003781   0.008538   0.012319   0.000000  -0.000000  -0.142089  -0.000000  -0.000000   43.0000     0.2173
    4.000     0.000   0.441240   0.004810   0.008707   0.013517   0.000000  -0.000000  -0.159126  -0.000000  -0.000000   43.0000     0.2158
    4.500     0.000   0.491457   0.005977   0.008885   0.014862   0.000000   0.000000  -0.176532  -0.000000  -0.000000   43.0000     0.2148
    5.000     0.000   0.542541   0.007290   0.009075   0.016365   0.000000  -0.000000  -0.194405  -0.000000  -0.000000   43.0000     0.2141
    5.500     0.000   0.594064   0.008750   0.009274   0.018024   0.000000  -0.000000  -0.212688  -0.000000  -0.000000   43.0000     0.2137
    6.000     0.000   0.646760   0.010362   0.009489   0.019851   0.000000  -0.000000  -0.231614  -0.000000  -0.000000   43.0000     0.2136
    6.500     0.000   0.699215   0.012109   0.009715   0.021823   0.000000  -0.000000  -0.250473  -0.000000  -0.000000   43.0000     0.2134
    7.000     0.000   0.750423   0.013933   0.009946   0.023879   0.000000  -0.000000  -0.268810  -0.000000  -0.000000   43.0000     0.2131
    7.500     0.000   0.799807   0.015836   0.010191   0.026026   0.000000   0.000000  -0.286405  -0.000000  -0.000000   43.0000     0.2126
    8.000     0.000   0.848533   0.017827   0.010453   0.028280   0.000000  -0.000000  -0.303710  -0.000000  -0.000000   43.0000     0.2120
    8.500     0.000   0.895750   0.019869   0.010735   0.030605   0.000000  -0.000000  -0.320286  -0.000000  -0.000000   43.0000     0.2113
    9.000     0.000   0.939694   0.021892   0.011024   0.032917   0.000000  -0.000000  -0.335006  -0.000000  -0.000000   43.0000     0.2102
    9.500     0.000   0.983109   0.023986   0.011339   0.035325   0.000000  -0.000000  -0.349383  -0.000000  -0.000000   43.0000     0.2090
   10.000     0.000   1.026499   0.026172   0.011683   0.037855   0.000000   0.000000  -0.363746  -0.000000  -0.000000   43.0000     0.2080
   10.500     0.000   1.069894   0.028453   0.012056   0.040509   0.000000  -0.000000  -0.378110  -0.000000  -0.000000   43.0000     0.2070
   11.000     0.000   1.113241   0.030827   0.012462   0.043289   0.000000   0.000000  -0.392450  -0.000000  -0.000000   43.0000     0.2060
   11.500     0.000   1.156522   0.033281   0.012907   0.046188   0.000000   0.000000  -0.406765  -0.000000  -0.000000   43.0000     0.2051
   12.000     0.000   1.199420   0.035827   0.013401   0.049228   0.000000  -0.000000  -0.420935  -0.000000  -0.000000   43.0000     0.2042
   12.500     0.000   1.241821   0.038418   0.013958   0.052377   0.000000   0.000000  -0.434893  -0.000000  -0.000000   43.0000     0.2033
   13.000     0.000   1.283146   0.041056   0.014602   0.055657   0.000000  -0.000000  -0.448387  -0.000000  -0.000000   43.0000     0.2024
   13.500     0.000   1.323214   0.043685   0.015343   0.059028   0.000000   0.000000  -0.461345  -0.000000  -0.000000   43.0000     0.2014
   14.000     0.000   1.361723   0.046306   0.016187   0.062493   0.000000  -0.000000  -0.473627  -0.000000  -0.000000   43.0000     0.2004
   14.500     0.000   1.398432   0.048888   0.017130   0.066018   0.000000  -0.000000  -0.485104  -0.000000  -0.000000   43.0000     0.1993
   15.000     0.000   1.432524   0.051369   0.018178   0.069548   0.000000  -0.000000  -0.495497  -0.000000  -0.000000   43.0000     0.1981
   15.500     0.000   1.463457   0.053713   0.019322   0.073035   0.000000  -0.000000  -0.504595  -0.000000  -0.000000   43.0000     0.1967
   16.000     0.000   1.490168   0.055816   0.020623   0.076438   0.000000   0.000000  -0.511834  -0.000000  -0.000000   43.0000     0.1952
   16.500     0.000   1.469332   0.062611   0.020677   0.083288   0.000000  -0.000000  -0.512734  -0.000000  -0.000000   43.0000     0.1944
   17.000     0.000   1.052818   0.086417   0.013037   0.099454   0.000000  -0.000000  -0.403612  -0.000000  -0.000000   43.0000     0.1987
   17.500     0.000   1.076646   0.090381   0.013616   0.103997   0.000000  -0.000000  -0.411238  -0.000000  -0.000000   43.0000     0.1974
   18.000     0.000   1.097540   0.094074   0.014272   0.108346   0.000000  -0.000000  -0.417060  -0.000000  -0.000000   43.0000     0.1959
   18.500     0.000   1.117142   0.097662   0.015066   0.112729   0.000000  -0.000000  -0.422363  -0.000000  -0.000000   43.0000     0.1944
   19.000     0.000   1.134922   0.101037   0.016056   0.117094   0.000000  -0.000000  -0.426946  -0.000000  -0.000000   43.0000     0.1929
   19.500     0.000   1.150501   0.104154   0.017307   0.121461   0.000000  -0.000000  -0.430721  -0.000000  -0.000000   43.0000     0.1914
   20.000     0.000   1.163036   0.106866   0.019037   0.125903   0.000000  -0.000000  -0.433627  -0.000000  -0.000000   43.0000     0.1901


