xflr5 v6.61

 Calculated polar for: Clark YH

 1 1 Reynolds number fixed          Mach number fixed         

 xtrf =   1.000 (top)        1.000 (bottom)
 Mach =   0.000     Re =     1.000 e 6     Ncrit =   9.000

  alpha     CL        CD       CDp       Cm    Top Xtr Bot Xtr   Cpmin    Chinge    XCp    
 ------- -------- --------- --------- -------- ------- ------- -------- --------- ---------
  -2.000   0.0637   0.00796   0.00140  -0.0188  0.5691  0.1649  -0.7436   0.0000   0.0000   0.0000   0.5577
  -1.500   0.1192   0.00792   0.00140  -0.0187  0.5459  0.1983  -0.6043   0.0000   0.0000   0.0000   0.4112
  -1.000   0.1750   0.00796   0.00137  -0.0186  0.5178  0.2090  -0.6400   0.0000   0.0000   0.0000   0.3578
  -0.500   0.2304   0.00803   0.00137  -0.0185  0.4890  0.2188  -0.7079   0.0000   0.0000   0.0000   0.3302
   0.000   0.2856   0.00811   0.00140  -0.0184  0.4646  0.2299  -0.7767   0.0000   0.0000   0.0000   0.3131
   0.500   0.3406   0.00819   0.00145  -0.0184  0.4442  0.2433  -0.8463   0.0000   0.0000   0.0000   0.3016
   1.000   0.3951   0.00819   0.00152  -0.0183  0.4276  0.2770  -0.9165   0.0000   0.0000   0.0000   0.2930
   1.500   0.4275   0.00658   0.00160  -0.0139  0.4152  0.8360  -0.9732   0.0000   0.0000   0.0000   0.2784
   2.000   0.5113   0.00666   0.00199  -0.0199  0.3967  0.9617  -1.0731   0.0000   0.0000   0.0000   0.2840
   2.500   0.5788   0.00701   0.00224  -0.0227  0.3715  0.9781  -1.1611   0.0000   0.0000   0.0000   0.2835
   3.000   0.6426   0.00798   0.00267  -0.0254  0.2540  0.9857  -1.2462   0.0000   0.0000   0.0000   0.2830
   3.500   0.7118   0.00860   0.00311  -0.0291  0.2211  0.9913  -1.3371   0.0000   0.0000   0.0000   0.2836
   4.000   0.7822   0.00897   0.00345  -0.0330  0.2106  0.9952  -1.4554   0.0000   0.0000   0.0000   0.2841
   4.500   0.8546   0.00930   0.00376  -0.0374  0.1983  0.9985  -1.7364   0.0000   0.0000   0.0000   0.2848
   5.000   0.9151   0.00968   0.00411  -0.0393  0.1869  1.0000  -2.0686   0.0000   0.0000   0.0000   0.2832
   5.500   0.9634   0.00995   0.00439  -0.0384  0.1775  1.0000  -2.4022   0.0000   0.0000   0.0000   0.2793
   6.000   1.0103   0.01035   0.00474  -0.0375  0.1599  1.0000  -2.7518   0.0000   0.0000   0.0000   0.2755
   6.500   1.0488   0.01148   0.00547  -0.0353  0.0944  1.0000  -3.0985   0.0000   0.0000   0.0000   0.2712
   7.000   1.0881   0.01241   0.00631  -0.0332  0.0719  1.0000  -3.4706   0.0000   0.0000   0.0000   0.2671
   7.500   1.1222   0.01362   0.00730  -0.0303  0.0353  1.0000  -3.8320   0.0000   0.0000   0.0000   0.2627
   8.000   1.1551   0.01480   0.00845  -0.0272  0.0226  1.0000  -4.1899   0.0000   0.0000   0.0000   0.2582
   8.500   1.1909   0.01566   0.00937  -0.0245  0.0198  1.0000  -4.6118   0.0000   0.0000   0.0000   0.2543
   9.000   1.2202   0.01684   0.01062  -0.0210  0.0169  1.0000  -5.0075   0.0000   0.0000   0.0000   0.2499
   9.500   1.2504   0.01782   0.01167  -0.0177  0.0154  1.0000  -5.4297   0.0000   0.0000   0.0000   0.2458
  10.000   1.2665   0.01921   0.01313  -0.0123  0.0140  1.0000  -5.7830   0.0000   0.0000   0.0000   0.2403
  10.500   1.2853   0.02090   0.01494  -0.0085  0.0130  1.0000  -6.1481   0.0000   0.0000   0.0000   0.2361
  11.000   1.3089   0.02268   0.01682  -0.0062  0.0121  1.0000  -6.5578   0.0000   0.0000   0.0000   0.2330
  11.500   1.3292   0.02494   0.01918  -0.0043  0.0113  1.0000  -6.9762   0.0000   0.0000   0.0000   0.2304
  12.000   1.3301   0.02909   0.02350  -0.0019  0.0105  1.0000  -7.2537   0.0000   0.0000   0.0000   0.2273
  12.500   1.3463   0.03226   0.02682  -0.0011  0.0102  1.0000  -7.6565   0.0000   0.0000   0.0000   0.2255
  13.000   1.3561   0.03635   0.03107  -0.0008  0.0097  1.0000  -8.0138   0.0000   0.0000   0.0000   0.2240
  13.500   1.3611   0.04124   0.03612  -0.0011  0.0093  1.0000  -8.3382   0.0000   0.0000   0.0000   0.2229
  14.000   1.3619   0.04685   0.04190  -0.0018  0.0090  1.0000  -8.6312   0.0000   0.0000   0.0000   0.2221
  14.500   1.3570   0.05340   0.04860  -0.0030  0.0087  1.0000  -8.8765   0.0000   0.0000   0.0000   0.2217
  15.000   1.3440   0.06130   0.05667  -0.0048  0.0085  1.0000  -9.0419   0.0000   0.0000   0.0000   0.2217
  15.500   1.3205   0.07097   0.06655  -0.0073  0.0083  1.0000  -9.0917   0.0000   0.0000   0.0000   0.2224
  16.000   1.2974   0.08092   0.07671  -0.0100  0.0081  1.0000  -9.1242   0.0000   0.0000   0.0000   0.2234
  16.500   1.2862   0.08962   0.08559  -0.0130  0.0080  1.0000  -9.2720   0.0000   0.0000   0.0000   0.2245
  17.000   1.2724   0.09893   0.09509  -0.0163  0.0078  1.0000  -9.3817   0.0000   0.0000   0.0000   0.2260
  17.500   1.2569   0.10875   0.10510  -0.0200  0.0077  1.0000  -9.4562   0.0000   0.0000   0.0000   0.2280
  18.000   1.2403   0.11904   0.11557  -0.0241  0.0075  1.0000  -9.4973   0.0000   0.0000   0.0000   0.2304
  18.500   1.2247   0.12948   0.12618  -0.0286  0.0074  1.0000  -9.5233   0.0000   0.0000   0.0000   0.2332
  19.000   1.2104   0.13985   0.13672  -0.0334  0.0072  1.0000  -9.5389   0.0000   0.0000   0.0000   0.2363
  19.500   1.1973   0.15027   0.14729  -0.0385  0.0071  1.0000  -9.5433   0.0000   0.0000   0.0000   0.2399
  20.000   1.1860   0.16061   0.15778  -0.0440  0.0070  1.0000  -9.5434   0.0000   0.0000   0.0000   0.2438


