xflr5 v6.61

 Calculated polar for: NACA 4301 2A

 1 1 Reynolds number fixed          Mach number fixed         

 xtrf =   1.000 (top)        1.000 (bottom)
 Mach =   0.000     Re =     1.000 e 6     Ncrit =   9.000

  alpha     CL        CD       CDp       Cm    Top Xtr Bot Xtr   Cpmin    Chinge    XCp    
 ------- -------- --------- --------- -------- ------- ------- -------- --------- ---------
  -2.000  -0.0850   0.01090   0.00300   0.0215  0.2447  0.0372  -1.4161   0.0000   0.0000   0.0000   0.4962
  -1.900  -0.0747   0.01089   0.00296   0.0218  0.2418  0.0375  -1.3639   0.0000   0.0000   0.0000   0.5348
  -1.800  -0.0646   0.01086   0.00292   0.0222  0.2387  0.0379  -1.3133   0.0000   0.0000   0.0000   0.5853
  -1.700  -0.0551   0.01074   0.00279   0.0226  0.2374  0.0388  -1.2715   0.0000   0.0000   0.0000   0.6526
  -1.600  -0.0450   0.01066   0.00271   0.0230  0.2363  0.0397  -1.2263   0.0000   0.0000   0.0000   0.7518
  -1.500  -0.0347   0.01061   0.00266   0.0233  0.2348  0.0404  -1.1800   0.0000   0.0000   0.0000   0.9113
  -1.400  -0.0243   0.01057   0.00262   0.0235  0.2332  0.0411  -1.1340   0.0000   0.0000   0.0000   1.2082
  -1.300  -0.0139   0.01054   0.00258   0.0238  0.2314  0.0418  -1.0888   0.0000   0.0000   0.0000   1.9492
  -1.200  -0.0035   0.01051   0.00254   0.0241  0.2294  0.0424  -1.0441   0.0000   0.0000   0.0000   7.0824
  -1.100   0.0069   0.01049   0.00251   0.0244  0.2274  0.0431  -0.9999   0.0000   0.0000   0.0000  -3.2772
  -1.000   0.0173   0.01048   0.00247   0.0246  0.2252  0.0437  -0.9750   0.0000   0.0000   0.0000  -1.1750
  -0.900   0.0276   0.01048   0.00245   0.0249  0.2227  0.0442  -0.9914   0.0000   0.0000   0.0000  -0.6522
  -0.800   0.0377   0.01047   0.00243   0.0252  0.2200  0.0453  -1.0073   0.0000   0.0000   0.0000  -0.4219
  -0.700   0.0481   0.01041   0.00238   0.0255  0.2192  0.0470  -1.0239   0.0000   0.0000   0.0000  -0.2844
  -0.600   0.0585   0.01038   0.00235   0.0258  0.2183  0.0485  -1.0406   0.0000   0.0000   0.0000  -0.1944
  -0.500   0.0690   0.01035   0.00233   0.0260  0.2172  0.0501  -1.0574   0.0000   0.0000   0.0000  -0.1312
  -0.400   0.0796   0.01033   0.00230   0.0263  0.2158  0.0518  -1.0743   0.0000   0.0000   0.0000  -0.0846
  -0.300   0.0899   0.01029   0.00228   0.0266  0.2143  0.0561  -1.0910   0.0000   0.0000   0.0000  -0.0503
  -0.200   0.0999   0.01023   0.00225   0.0269  0.2128  0.0662  -1.1075   0.0000   0.0000   0.0000  -0.0244
  -0.100   0.1077   0.01002   0.00222   0.0276  0.2113  0.1246  -1.1220   0.0000   0.0000   0.0000  -0.0114
   0.000   0.1068   0.00921   0.00210   0.0298  0.2104  0.3465  -1.1285   0.0000   0.0000   0.0000  -0.0344
   0.100   0.1025   0.00837   0.00198   0.0327  0.2096  0.5598  -1.1323   0.0000   0.0000   0.0000  -0.0749
   0.200   0.0973   0.00770   0.00188   0.0361  0.2088  0.7127  -1.1356   0.0000   0.0000   0.0000  -0.1278
   0.300   0.0994   0.00746   0.00193   0.0383  0.2074  0.7981  -1.1454   0.0000   0.0000   0.0000  -0.1422
   0.400   0.1073   0.00743   0.00198   0.0392  0.2054  0.8253  -1.1601   0.0000   0.0000   0.0000  -0.1225
   0.500   0.1162   0.00745   0.00203   0.0398  0.2032  0.8424  -1.1756   0.0000   0.0000   0.0000  -0.0998
   0.600   0.1258   0.00746   0.00207   0.0403  0.2023  0.8560  -1.1919   0.0000   0.0000   0.0000  -0.0780
   0.700   0.1362   0.00747   0.00210   0.0407  0.2017  0.8663  -1.2092   0.0000   0.0000   0.0000  -0.0563
   0.800   0.1462   0.00749   0.00213   0.0411  0.2010  0.8747  -1.2261   0.0000   0.0000   0.0000  -0.0388
   0.900   0.1568   0.00751   0.00216   0.0414  0.2002  0.8809  -1.2436   0.0000   0.0000   0.0000  -0.0215
   1.000   0.1675   0.00753   0.00220   0.0417  0.1993  0.8878  -1.2613   0.0000   0.0000   0.0000  -0.0062
   1.100   0.1769   0.00757   0.00223   0.0422  0.1983  0.8947  -1.2777   0.0000   0.0000   0.0000   0.0039
   1.200   0.1880   0.00760   0.00228   0.0424  0.1972  0.9009  -1.2958   0.0000   0.0000   0.0000   0.0170
   1.300   0.1989   0.00765   0.00232   0.0427  0.1962  0.9060  -1.3137   0.0000   0.0000   0.0000   0.0280
   1.400   0.2089   0.00769   0.00235   0.0430  0.1951  0.9098  -1.3309   0.0000   0.0000   0.0000   0.0365
   1.500   0.2184   0.00773   0.00237   0.0435  0.1941  0.9133  -1.3476   0.0000   0.0000   0.0000   0.0432
   1.600   0.2300   0.00777   0.00241   0.0436  0.1929  0.9166  -1.3663   0.0000   0.0000   0.0000   0.0529
   1.700   0.2417   0.00783   0.00246   0.0436  0.1917  0.9197  -1.3850   0.0000   0.0000   0.0000   0.0620
   1.800   0.2523   0.00789   0.00251   0.0438  0.1904  0.9228  -1.4028   0.0000   0.0000   0.0000   0.0686
   1.900   0.2623   0.00796   0.00256   0.0442  0.1890  0.9261  -1.4197   0.0000   0.0000   0.0000   0.0737
   2.000   0.2709   0.00804   0.00262   0.0449  0.1875  0.9298  -1.4352   0.0000   0.0000   0.0000   0.0766
   2.100   0.2823   0.00812   0.00270   0.0449  0.1861  0.9324  -1.4531   0.0000   0.0000   0.0000   0.0830
   2.200   0.2946   0.00816   0.00274   0.0448  0.1858  0.9344  -1.4728   0.0000   0.0000   0.0000   0.0900
   2.300   0.3062   0.00820   0.00278   0.0448  0.1855  0.9363  -1.4919   0.0000   0.0000   0.0000   0.0957
   2.400   0.3176   0.00825   0.00283   0.0449  0.1850  0.9385  -1.5108   0.0000   0.0000   0.0000   0.1007
   2.500   0.3284   0.00829   0.00287   0.0451  0.1846  0.9410  -1.5291   0.0000   0.0000   0.0000   0.1047
   2.600   0.3378   0.00833   0.00291   0.0456  0.1841  0.9440  -1.5461   0.0000   0.0000   0.0000   0.1068
   2.700   0.3485   0.00838   0.00295   0.0458  0.1836  0.9463  -1.5644   0.0000   0.0000   0.0000   0.1104
   2.800   0.3615   0.00844   0.00300   0.0455  0.1830  0.9478  -1.5849   0.0000   0.0000   0.0000   0.1158
   2.900   0.3741   0.00849   0.00306   0.0453  0.1823  0.9491  -1.6052   0.0000   0.0000   0.0000   0.1206
   3.000   0.3866   0.00855   0.00311   0.0451  0.1817  0.9503  -1.6253   0.0000   0.0000   0.0000   0.1250
   3.100   0.3986   0.00860   0.00315   0.0450  0.1811  0.9512  -1.6451   0.0000   0.0000   0.0000   0.1288
   3.200   0.4105   0.00865   0.00318   0.0449  0.1804  0.9521  -1.6647   0.0000   0.0000   0.0000   0.1322
   3.300   0.4222   0.00869   0.00322   0.0449  0.1798  0.9531  -1.6851   0.0000   0.0000   0.0000   0.1353
   3.400   0.4336   0.00874   0.00326   0.0449  0.1791  0.9542  -1.7057   0.0000   0.0000   0.0000   0.1380
   3.500   0.4445   0.00879   0.00330   0.0449  0.1785  0.9555  -1.7260   0.0000   0.0000   0.0000   0.1403
   3.600   0.4547   0.00884   0.00333   0.0452  0.1779  0.9570  -1.7454   0.0000   0.0000   0.0000   0.1419
   3.700   0.4626   0.00887   0.00336   0.0460  0.1773  0.9591  -1.7627   0.0000   0.0000   0.0000   0.1419
   3.800   0.4754   0.00893   0.00341   0.0456  0.1766  0.9596  -1.7850   0.0000   0.0000   0.0000   0.1452
   3.900   0.4881   0.00900   0.00346   0.0453  0.1759  0.9602  -1.8072   0.0000   0.0000   0.0000   0.1482
   4.000   0.5008   0.00907   0.00352   0.0450  0.1751  0.9607  -1.8293   0.0000   0.0000   0.0000   0.1511
   4.100   0.5135   0.00915   0.00360   0.0447  0.1742  0.9612  -1.8514   0.0000   0.0000   0.0000   0.1539
   4.200   0.5262   0.00924   0.00368   0.0444  0.1733  0.9618  -1.8733   0.0000   0.0000   0.0000   0.1565
   4.300   0.5387   0.00934   0.00377   0.0441  0.1724  0.9624  -1.8949   0.0000   0.0000   0.0000   0.1590
   4.400   0.5511   0.00946   0.00388   0.0438  0.1714  0.9629  -1.9162   0.0000   0.0000   0.0000   0.1612
   4.500   0.5633   0.00960   0.00402   0.0435  0.1703  0.9636  -1.9370   0.0000   0.0000   0.0000   0.1633
   4.600   0.5762   0.00964   0.00406   0.0432  0.1701  0.9641  -1.9602   0.0000   0.0000   0.0000   0.1656
   4.700   0.5891   0.00969   0.00411   0.0428  0.1699  0.9647  -1.9834   0.0000   0.0000   0.0000   0.1677
   4.800   0.6018   0.00974   0.00415   0.0425  0.1697  0.9654  -2.0064   0.0000   0.0000   0.0000   0.1697
   4.900   0.6142   0.00979   0.00421   0.0423  0.1694  0.9661  -2.0292   0.0000   0.0000   0.0000   0.1714
   5.000   0.6265   0.00984   0.00426   0.0421  0.1691  0.9669  -2.0517   0.0000   0.0000   0.0000   0.1730
   5.100   0.6384   0.00989   0.00431   0.0419  0.1688  0.9678  -2.0741   0.0000   0.0000   0.0000   0.1744
   5.200   0.6497   0.00994   0.00436   0.0419  0.1684  0.9689  -2.0959   0.0000   0.0000   0.0000   0.1755
   5.300   0.6563   0.00997   0.00439   0.0429  0.1680  0.9716  -2.1125   0.0000   0.0000   0.0000   0.1745
   5.400   0.6699   0.01003   0.00445   0.0424  0.1676  0.9718  -2.1370   0.0000   0.0000   0.0000   0.1765
   5.500   0.6836   0.01009   0.00451   0.0418  0.1670  0.9721  -2.1616   0.0000   0.0000   0.0000   0.1784
   5.600   0.6973   0.01014   0.00456   0.0413  0.1665  0.9723  -2.1864   0.0000   0.0000   0.0000   0.1804
   5.700   0.7111   0.01021   0.00463   0.0407  0.1660  0.9725  -2.2111   0.0000   0.0000   0.0000   0.1822
   5.800   0.7247   0.01028   0.00469   0.0401  0.1656  0.9727  -2.2377   0.0000   0.0000   0.0000   0.1839
   5.900   0.7383   0.01035   0.00476   0.0396  0.1651  0.9730  -2.2690   0.0000   0.0000   0.0000   0.1856
   6.000   0.7517   0.01042   0.00484   0.0391  0.1647  0.9732  -2.3003   0.0000   0.0000   0.0000   0.1871
   6.100   0.7652   0.01049   0.00491   0.0386  0.1643  0.9735  -2.3317   0.0000   0.0000   0.0000   0.1886
   6.200   0.7785   0.01057   0.00498   0.0381  0.1638  0.9738  -2.3631   0.0000   0.0000   0.0000   0.1900
   6.300   0.7918   0.01064   0.00505   0.0376  0.1634  0.9741  -2.3946   0.0000   0.0000   0.0000   0.1913
   6.400   0.8050   0.01071   0.00512   0.0371  0.1629  0.9745  -2.4262   0.0000   0.0000   0.0000   0.1926
   6.500   0.8182   0.01078   0.00520   0.0367  0.1624  0.9748  -2.4578   0.0000   0.0000   0.0000   0.1937
   6.600   0.8313   0.01086   0.00526   0.0362  0.1619  0.9752  -2.4894   0.0000   0.0000   0.0000   0.1949
   6.700   0.8442   0.01093   0.00534   0.0358  0.1613  0.9757  -2.5210   0.0000   0.0000   0.0000   0.1959
   6.800   0.8570   0.01101   0.00541   0.0354  0.1606  0.9761  -2.5526   0.0000   0.0000   0.0000   0.1969
   6.900   0.8697   0.01109   0.00549   0.0350  0.1599  0.9767  -2.5839   0.0000   0.0000   0.0000   0.1978
   7.000   0.8821   0.01119   0.00558   0.0347  0.1591  0.9773  -2.6149   0.0000   0.0000   0.0000   0.1986
   7.100   0.8942   0.01130   0.00569   0.0344  0.1583  0.9779  -2.6454   0.0000   0.0000   0.0000   0.1993
   7.200   0.9059   0.01143   0.00582   0.0342  0.1575  0.9787  -2.6752   0.0000   0.0000   0.0000   0.1999
   7.300   0.9171   0.01158   0.00597   0.0341  0.1567  0.9797  -2.7042   0.0000   0.0000   0.0000   0.2004
   7.400   0.9272   0.01176   0.00615   0.0342  0.1559  0.9810  -2.7314   0.0000   0.0000   0.0000   0.2006
   7.500   0.9346   0.01192   0.00633   0.0349  0.1553  0.9830  -2.7549   0.0000   0.0000   0.0000   0.1999
   7.600   0.9480   0.01198   0.00639   0.0343  0.1552  0.9832  -2.7881   0.0000   0.0000   0.0000   0.2009
   7.700   0.9613   0.01204   0.00646   0.0338  0.1550  0.9835  -2.8214   0.0000   0.0000   0.0000   0.2018
   7.800   0.9747   0.01210   0.00653   0.0333  0.1548  0.9838  -2.8547   0.0000   0.0000   0.0000   0.2027
   7.900   0.9879   0.01216   0.00660   0.0328  0.1547  0.9840  -2.8881   0.0000   0.0000   0.0000   0.2035
   8.000   1.0011   0.01222   0.00667   0.0323  0.1544  0.9843  -2.9215   0.0000   0.0000   0.0000   0.2043
   8.100   1.0143   0.01229   0.00675   0.0318  0.1542  0.9847  -2.9549   0.0000   0.0000   0.0000   0.2051
   8.200   1.0274   0.01235   0.00683   0.0313  0.1540  0.9850  -2.9883   0.0000   0.0000   0.0000   0.2058
   8.300   1.0404   0.01242   0.00691   0.0308  0.1537  0.9854  -3.0217   0.0000   0.0000   0.0000   0.2065
   8.400   1.0534   0.01249   0.00699   0.0303  0.1534  0.9858  -3.0551   0.0000   0.0000   0.0000   0.2072
   8.500   1.0662   0.01256   0.00707   0.0299  0.1531  0.9862  -3.0887   0.0000   0.0000   0.0000   0.2078
   8.600   1.0790   0.01264   0.00716   0.0294  0.1527  0.9867  -3.1239   0.0000   0.0000   0.0000   0.2084
   8.700   1.0917   0.01271   0.00724   0.0290  0.1523  0.9872  -3.1591   0.0000   0.0000   0.0000   0.2089
   8.800   1.1043   0.01279   0.00733   0.0286  0.1520  0.9878  -3.1942   0.0000   0.0000   0.0000   0.2095
   8.900   1.1168   0.01287   0.00742   0.0282  0.1516  0.9883  -3.2293   0.0000   0.0000   0.0000   0.2099
   9.000   1.1292   0.01294   0.00751   0.0279  0.1512  0.9890  -3.2644   0.0000   0.0000   0.0000   0.2104
   9.100   1.1414   0.01302   0.00760   0.0275  0.1508  0.9896  -3.2994   0.0000   0.0000   0.0000   0.2108
   9.200   1.1536   0.01310   0.00769   0.0272  0.1503  0.9903  -3.3343   0.0000   0.0000   0.0000   0.2112
   9.300   1.1656   0.01319   0.00778   0.0269  0.1499  0.9910  -3.3691   0.0000   0.0000   0.0000   0.2115
   9.400   1.1774   0.01327   0.00788   0.0267  0.1495  0.9918  -3.4037   0.0000   0.0000   0.0000   0.2118
   9.500   1.1890   0.01335   0.00797   0.0264  0.1491  0.9926  -3.4381   0.0000   0.0000   0.0000   0.2120
   9.600   1.2001   0.01344   0.00807   0.0263  0.1487  0.9934  -3.4717   0.0000   0.0000   0.0000   0.2121
   9.700   1.2131   0.01352   0.00816   0.0258  0.1482  0.9937  -3.5087   0.0000   0.0000   0.0000   0.2126
   9.800   1.2261   0.01360   0.00824   0.0253  0.1478  0.9941  -3.5459   0.0000   0.0000   0.0000   0.2131
   9.900   1.2391   0.01368   0.00833   0.0248  0.1473  0.9944  -3.5830   0.0000   0.0000   0.0000   0.2136
  10.000   1.2519   0.01377   0.00843   0.0242  0.1468  0.9949  -3.6201   0.0000   0.0000   0.0000   0.2140
  10.100   1.2647   0.01386   0.00853   0.0238  0.1463  0.9953  -3.6570   0.0000   0.0000   0.0000   0.2144
  10.200   1.2773   0.01396   0.00864   0.0233  0.1458  0.9958  -3.6937   0.0000   0.0000   0.0000   0.2148
  10.300   1.2897   0.01408   0.00876   0.0228  0.1452  0.9963  -3.7302   0.0000   0.0000   0.0000   0.2152
  10.400   1.3019   0.01421   0.00890   0.0224  0.1445  0.9969  -3.7662   0.0000   0.0000   0.0000   0.2155
  10.500   1.3139   0.01437   0.00907   0.0220  0.1438  0.9974  -3.8016   0.0000   0.0000   0.0000   0.2158
  10.600   1.3255   0.01457   0.00927   0.0217  0.1430  0.9980  -3.8362   0.0000   0.0000   0.0000   0.2160
  10.700   1.3367   0.01483   0.00954   0.0213  0.1420  0.9985  -3.8696   0.0000   0.0000   0.0000   0.2162
  10.800   1.3484   0.01502   0.00975   0.0210  0.1414  0.9990  -3.9045   0.0000   0.0000   0.0000   0.2164
  10.900   1.3611   0.01507   0.00983   0.0205  0.1412  0.9994  -3.9425   0.0000   0.0000   0.0000   0.2167
  11.000   1.3737   0.01512   0.00989   0.0200  0.1410  0.9998  -3.9807   0.0000   0.0000   0.0000   0.2170
  11.100   1.3850   0.01517   0.00997   0.0199  0.1407  1.0000  -4.0164   0.0000   0.0000   0.0000   0.2171
  11.200   1.3919   0.01522   0.01004   0.0206  0.1404  1.0000  -4.0445   0.0000   0.0000   0.0000   0.2165
  11.300   1.3988   0.01527   0.01011   0.0213  0.1402  1.0000  -4.0726   0.0000   0.0000   0.0000   0.2158
  11.400   1.4057   0.01533   0.01019   0.0220  0.1398  1.0000  -4.1005   0.0000   0.0000   0.0000   0.2152
  11.500   1.4125   0.01540   0.01028   0.0227  0.1395  1.0000  -4.1284   0.0000   0.0000   0.0000   0.2146
  11.600   1.4192   0.01547   0.01036   0.0234  0.1391  1.0000  -4.1562   0.0000   0.0000   0.0000   0.2140
  11.700   1.4259   0.01553   0.01045   0.0242  0.1387  1.0000  -4.1841   0.0000   0.0000   0.0000   0.2134
  11.800   1.4326   0.01560   0.01054   0.0249  0.1383  1.0000  -4.2121   0.0000   0.0000   0.0000   0.2127
  11.900   1.4394   0.01567   0.01062   0.0256  0.1378  1.0000  -4.2402   0.0000   0.0000   0.0000   0.2121
  12.000   1.4461   0.01573   0.01070   0.0263  0.1373  1.0000  -4.2684   0.0000   0.0000   0.0000   0.2115
  12.100   1.4529   0.01579   0.01078   0.0270  0.1367  1.0000  -4.2968   0.0000   0.0000   0.0000   0.2109
  12.200   1.4597   0.01585   0.01085   0.0277  0.1361  1.0000  -4.3254   0.0000   0.0000   0.0000   0.2104
  12.300   1.4666   0.01591   0.01092   0.0284  0.1356  1.0000  -4.3541   0.0000   0.0000   0.0000   0.2098
  12.400   1.4734   0.01598   0.01100   0.0291  0.1350  1.0000  -4.3827   0.0000   0.0000   0.0000   0.2092
  12.500   1.4800   0.01606   0.01108   0.0298  0.1344  1.0000  -4.4110   0.0000   0.0000   0.0000   0.2086
  12.600   1.4864   0.01614   0.01118   0.0305  0.1338  1.0000  -4.4388   0.0000   0.0000   0.0000   0.2080
  12.700   1.4926   0.01624   0.01129   0.0313  0.1332  1.0000  -4.4663   0.0000   0.0000   0.0000   0.2074
  12.800   1.4986   0.01635   0.01140   0.0321  0.1326  1.0000  -4.4931   0.0000   0.0000   0.0000   0.2067
  12.900   1.5043   0.01648   0.01154   0.0329  0.1320  1.0000  -4.5193   0.0000   0.0000   0.0000   0.2061
  13.000   1.5095   0.01663   0.01170   0.0338  0.1312  1.0000  -4.5444   0.0000   0.0000   0.0000   0.2053
  13.100   1.5141   0.01681   0.01189   0.0348  0.1304  1.0000  -4.5680   0.0000   0.0000   0.0000   0.2046
  13.200   1.5179   0.01704   0.01212   0.0359  0.1295  1.0000  -4.5897   0.0000   0.0000   0.0000   0.2037
  13.300   1.5224   0.01724   0.01234   0.0369  0.1288  1.0000  -4.6128   0.0000   0.0000   0.0000   0.2029
  13.400   1.5294   0.01731   0.01244   0.0375  0.1286  1.0000  -4.6419   0.0000   0.0000   0.0000   0.2024
  13.500   1.5366   0.01738   0.01253   0.0380  0.1282  1.0000  -4.6715   0.0000   0.0000   0.0000   0.2020
  13.600   1.5439   0.01744   0.01262   0.0386  0.1277  1.0000  -4.7071   0.0000   0.0000   0.0000   0.2015
  13.700   1.5511   0.01750   0.01271   0.0392  0.1271  1.0000  -4.7811   0.0000   0.0000   0.0000   0.2011
  13.800   1.5583   0.01757   0.01280   0.0397  0.1264  1.0000  -4.8552   0.0000   0.0000   0.0000   0.2006
  13.900   1.5651   0.01764   0.01289   0.0403  0.1256  1.0000  -4.9284   0.0000   0.0000   0.0000   0.2001
  14.000   1.5712   0.01771   0.01298   0.0411  0.1247  1.0000  -4.9990   0.0000   0.0000   0.0000   0.1995
  14.100   1.5764   0.01780   0.01307   0.0420  0.1238  1.0000  -5.0664   0.0000   0.0000   0.0000   0.1988
  14.200   1.5811   0.01790   0.01318   0.0430  0.1229  1.0000  -5.1317   0.0000   0.0000   0.0000   0.1981
  14.300   1.5853   0.01802   0.01331   0.0440  0.1220  1.0000  -5.1958   0.0000   0.0000   0.0000   0.1973
  14.400   1.5895   0.01815   0.01344   0.0450  0.1211  1.0000  -5.2611   0.0000   0.0000   0.0000   0.1965
  14.500   1.5934   0.01831   0.01360   0.0460  0.1201  1.0000  -5.3272   0.0000   0.0000   0.0000   0.1957
  14.600   1.5966   0.01851   0.01381   0.0471  0.1189  1.0000  -5.3904   0.0000   0.0000   0.0000   0.1949
  14.700   1.5987   0.01878   0.01408   0.0482  0.1176  1.0000  -5.4484   0.0000   0.0000   0.0000   0.1940
  14.800   1.6045   0.01892   0.01424   0.0488  0.1169  1.0000  -5.5242   0.0000   0.0000   0.0000   0.1935
  14.900   1.6108   0.01905   0.01440   0.0494  0.1162  1.0000  -5.6024   0.0000   0.0000   0.0000   0.1931
  15.000   1.6167   0.01920   0.01458   0.0500  0.1154  1.0000  -5.6790   0.0000   0.0000   0.0000   0.1926
  15.100   1.6222   0.01937   0.01478   0.0506  0.1145  1.0000  -5.7540   0.0000   0.0000   0.0000   0.1921
  15.200   1.6274   0.01957   0.01500   0.0512  0.1135  1.0000  -5.8281   0.0000   0.0000   0.0000   0.1916
  15.300   1.6323   0.01978   0.01523   0.0518  0.1125  1.0000  -5.9013   0.0000   0.0000   0.0000   0.1911
  15.400   1.6369   0.02003   0.01548   0.0524  0.1114  1.0000  -5.9732   0.0000   0.0000   0.0000   0.1906
  15.500   1.6411   0.02030   0.01576   0.0530  0.1103  1.0000  -6.0430   0.0000   0.0000   0.0000   0.1901
  15.600   1.6448   0.02061   0.01608   0.0536  0.1091  1.0000  -6.1107   0.0000   0.0000   0.0000   0.1895
  15.700   1.6479   0.02097   0.01645   0.0542  0.1080  1.0000  -6.1756   0.0000   0.0000   0.0000   0.1890
  15.800   1.6502   0.02139   0.01688   0.0549  0.1067  1.0000  -6.2366   0.0000   0.0000   0.0000   0.1884
  15.900   1.6548   0.02169   0.01721   0.0553  0.1061  1.0000  -6.3094   0.0000   0.0000   0.0000   0.1880
  16.000   1.6594   0.02201   0.01756   0.0557  0.1053  1.0000  -6.3819   0.0000   0.0000   0.0000   0.1876
  16.100   1.6635   0.02237   0.01794   0.0561  0.1045  1.0000  -6.4525   0.0000   0.0000   0.0000   0.1872
  16.200   1.6672   0.02276   0.01836   0.0565  0.1035  1.0000  -6.5216   0.0000   0.0000   0.0000   0.1868
  16.300   1.6706   0.02319   0.01881   0.0568  0.1024  1.0000  -6.5886   0.0000   0.0000   0.0000   0.1864
  16.400   1.6734   0.02369   0.01932   0.0571  0.1012  1.0000  -6.6528   0.0000   0.0000   0.0000   0.1861
  16.500   1.6754   0.02426   0.01991   0.0574  0.1000  1.0000  -6.7132   0.0000   0.0000   0.0000   0.1857
  16.600   1.6767   0.02491   0.02058   0.0576  0.0987  1.0000  -6.7693   0.0000   0.0000   0.0000   0.1853
  16.700   1.6772   0.02565   0.02133   0.0578  0.0974  1.0000  -6.8236   0.0000   0.0000   0.0000   0.1850
  16.800   1.6781   0.02640   0.02210   0.0579  0.0962  1.0000  -6.8802   0.0000   0.0000   0.0000   0.1847
  16.900   1.6810   0.02699   0.02272   0.0580  0.0955  1.0000  -6.9487   0.0000   0.0000   0.0000   0.1844
  17.000   1.6833   0.02765   0.02341   0.0580  0.0948  1.0000  -7.0136   0.0000   0.0000   0.0000   0.1842
  17.100   1.6850   0.02837   0.02416   0.0580  0.0940  1.0000  -7.0757   0.0000   0.0000   0.0000   0.1840
  17.200   1.6863   0.02914   0.02497   0.0579  0.0932  1.0000  -7.1347   0.0000   0.0000   0.0000   0.1838
  17.300   1.6868   0.02999   0.02585   0.0579  0.0924  1.0000  -7.1896   0.0000   0.0000   0.0000   0.1835
  17.400   1.6868   0.03091   0.02680   0.0578  0.0916  1.0000  -7.2412   0.0000   0.0000   0.0000   0.1833
  17.500   1.6862   0.03191   0.02782   0.0576  0.0909  1.0000  -7.2892   0.0000   0.0000   0.0000   0.1831
  17.600   1.6846   0.03301   0.02895   0.0574  0.0901  1.0000  -7.3311   0.0000   0.0000   0.0000   0.1829
  17.700   1.6822   0.03422   0.03019   0.0571  0.0894  1.0000  -7.3681   0.0000   0.0000   0.0000   0.1828
  17.800   1.6791   0.03552   0.03152   0.0568  0.0886  1.0000  -7.4004   0.0000   0.0000   0.0000   0.1826
  17.900   1.6752   0.03693   0.03297   0.0564  0.0878  1.0000  -7.4271   0.0000   0.0000   0.0000   0.1825
  18.000   1.6703   0.03848   0.03455   0.0559  0.0871  1.0000  -7.4475   0.0000   0.0000   0.0000   0.1823
  18.100   1.6649   0.04013   0.03624   0.0554  0.0865  1.0000  -7.4641   0.0000   0.0000   0.0000   0.1823
  18.200   1.6631   0.04139   0.03755   0.0549  0.0861  1.0000  -7.5038   0.0000   0.0000   0.0000   0.1822
  18.300   1.6604   0.04278   0.03899   0.0544  0.0857  1.0000  -7.5369   0.0000   0.0000   0.0000   0.1822
  18.400   1.6562   0.04435   0.04061   0.0538  0.0852  1.0000  -7.5604   0.0000   0.0000   0.0000   0.1822
  18.500   1.6506   0.04613   0.04244   0.0531  0.0848  1.0000  -7.5742   0.0000   0.0000   0.0000   0.1822
  18.600   1.6436   0.04811   0.04447   0.0522  0.0844  1.0000  -7.5790   0.0000   0.0000   0.0000   0.1823
  18.700   1.6352   0.05030   0.04671   0.0512  0.0840  1.0000  -7.5736   0.0000   0.0000   0.0000   0.1824
  18.800   1.6251   0.05275   0.04922   0.0501  0.0837  1.0000  -7.5560   0.0000   0.0000   0.0000   0.1826
  18.900   1.6129   0.05549   0.05202   0.0489  0.0834  1.0000  -7.5240   0.0000   0.0000   0.0000   0.1828
  19.000   1.5988   0.05855   0.05514   0.0474  0.0832  1.0000  -7.4777   0.0000   0.0000   0.0000   0.1831
  19.100   1.5825   0.06198   0.05865   0.0458  0.0831  1.0000  -7.4159   0.0000   0.0000   0.0000   0.1835
  19.200   1.5630   0.06594   0.06268   0.0438  0.0831  1.0000  -7.3302   0.0000   0.0000   0.0000   0.1841
  19.300   1.5415   0.07016   0.06697   0.0418  0.0831  1.0000  -7.2303   0.0000   0.0000   0.0000   0.1847
  19.400   1.5184   0.07462   0.07151   0.0397  0.0832  1.0000  -7.1183   0.0000   0.0000   0.0000   0.1854
  19.500   1.4940   0.07930   0.07626   0.0374  0.0832  1.0000  -6.9955   0.0000   0.0000   0.0000   0.1862
  19.600   1.4687   0.08410   0.08112   0.0351  0.0832  1.0000  -6.8658   0.0000   0.0000   0.0000   0.1870
  19.700   1.4437   0.08891   0.08600   0.0327  0.0832  1.0000  -6.7363   0.0000   0.0000   0.0000   0.1880
  19.800   1.4258   0.09272   0.08986   0.0308  0.0830  1.0000  -6.6555   0.0000   0.0000   0.0000   0.1887
  19.900   1.4037   0.09723   0.09443   0.0286  0.0828  1.0000  -6.5434   0.0000   0.0000   0.0000   0.1897
  20.000   1.3897   0.10054   0.09777   0.0269  0.0824  1.0000  -6.4874   0.0000   0.0000   0.0000   0.1904


