xflr5 v6.61

 Calculated polar for: NACA 23012

 1 1 Reynolds number fixed          Mach number fixed         

 xtrf =   1.000 (top)        1.000 (bottom)
 Mach =   0.120     Re =     1.600 e 6     Ncrit =   9.000

  alpha     CL        CD       CDp       Cm    Top Xtr Bot Xtr   Cpmin    Chinge    XCp    
 ------- -------- --------- --------- -------- ------- ------- -------- --------- ---------
  -5.000  -0.4110   0.00886   0.00359  -0.0160  0.8975  0.0215  -3.3286   0.0000   0.0000   0.0000   0.2046
  -4.900  -0.4006   0.00882   0.00351  -0.0157  0.8877  0.0218  -3.2516   0.0000   0.0000   0.0000   0.2043
  -4.800  -0.3901   0.00878   0.00343  -0.0155  0.8783  0.0220  -3.1744   0.0000   0.0000   0.0000   0.2039
  -4.700  -0.3792   0.00874   0.00336  -0.0153  0.8694  0.0222  -3.0965   0.0000   0.0000   0.0000   0.2033
  -4.600  -0.3690   0.00861   0.00319  -0.0150  0.8615  0.0228  -3.0272   0.0000   0.0000   0.0000   0.2029
  -4.500  -0.3585   0.00852   0.00309  -0.0148  0.8532  0.0235  -2.9535   0.0000   0.0000   0.0000   0.2024
  -4.400  -0.3476   0.00847   0.00302  -0.0147  0.8444  0.0240  -2.8768   0.0000   0.0000   0.0000   0.2015
  -4.300  -0.3368   0.00843   0.00295  -0.0145  0.8359  0.0245  -2.8006   0.0000   0.0000   0.0000   0.2006
  -4.200  -0.3259   0.00840   0.00289  -0.0144  0.8271  0.0250  -2.7257   0.0000   0.0000   0.0000   0.1997
  -4.100  -0.3149   0.00837   0.00282  -0.0142  0.8180  0.0255  -2.6515   0.0000   0.0000   0.0000   0.1986
  -4.000  -0.3040   0.00833   0.00276  -0.0141  0.8088  0.0259  -2.5784   0.0000   0.0000   0.0000   0.1974
  -3.900  -0.2931   0.00832   0.00270  -0.0140  0.7992  0.0262  -2.5057   0.0000   0.0000   0.0000   0.1961
  -3.800  -0.2823   0.00826   0.00261  -0.0138  0.7891  0.0268  -2.4362   0.0000   0.0000   0.0000   0.1949
  -3.700  -0.2716   0.00818   0.00251  -0.0136  0.7793  0.0277  -2.3677   0.0000   0.0000   0.0000   0.1936
  -3.600  -0.2607   0.00815   0.00245  -0.0135  0.7696  0.0283  -2.2971   0.0000   0.0000   0.0000   0.1919
  -3.500  -0.2497   0.00812   0.00239  -0.0134  0.7598  0.0290  -2.2268   0.0000   0.0000   0.0000   0.1901
  -3.400  -0.2386   0.00810   0.00234  -0.0133  0.7498  0.0297  -2.1569   0.0000   0.0000   0.0000   0.1880
  -3.300  -0.2276   0.00808   0.00229  -0.0132  0.7397  0.0303  -2.0880   0.0000   0.0000   0.0000   0.1857
  -3.200  -0.2165   0.00808   0.00224  -0.0131  0.7291  0.0308  -2.0217   0.0000   0.0000   0.0000   0.1831
  -3.100  -0.2057   0.00803   0.00216  -0.0130  0.7182  0.0319  -1.9635   0.0000   0.0000   0.0000   0.1806
  -3.000  -0.1947   0.00800   0.00210  -0.0129  0.7075  0.0330  -1.9029   0.0000   0.0000   0.0000   0.1775
  -2.900  -0.1836   0.00798   0.00206  -0.0128  0.6971  0.0340  -1.8424   0.0000   0.0000   0.0000   0.1739
  -2.800  -0.1725   0.00798   0.00202  -0.0127  0.6868  0.0349  -1.7826   0.0000   0.0000   0.0000   0.1698
  -2.700  -0.1613   0.00798   0.00199  -0.0126  0.6764  0.0356  -1.7231   0.0000   0.0000   0.0000   0.1649
  -2.600  -0.1503   0.00793   0.00192  -0.0125  0.6662  0.0372  -1.6665   0.0000   0.0000   0.0000   0.1598
  -2.500  -0.1393   0.00792   0.00188  -0.0125  0.6556  0.0385  -1.6087   0.0000   0.0000   0.0000   0.1536
  -2.300  -0.1170   0.00792   0.00180  -0.0123  0.6333  0.0407  -1.4944   0.0000   0.0000   0.0000   0.1373
  -2.200  -0.1060   0.00789   0.00176  -0.0122  0.6226  0.0427  -1.4392   0.0000   0.0000   0.0000   0.1269
  -2.100  -0.0949   0.00788   0.00172  -0.0122  0.6119  0.0444  -1.3836   0.0000   0.0000   0.0000   0.1138
  -2.000  -0.0837   0.00789   0.00169  -0.0121  0.6014  0.0460  -1.3284   0.0000   0.0000   0.0000   0.0969
  -1.900  -0.0725   0.00786   0.00166  -0.0121  0.5913  0.0484  -1.2742   0.0000   0.0000   0.0000   0.0749
  -1.800  -0.0614   0.00786   0.00163  -0.0120  0.5812  0.0508  -1.2202   0.0000   0.0000   0.0000   0.0449
  -1.700  -0.0503   0.00786   0.00160  -0.0120  0.5705  0.0533  -1.1698   0.0000   0.0000   0.0000   0.0019
  -1.600  -0.0392   0.00785   0.00157  -0.0119  0.5594  0.0563  -1.1222   0.0000   0.0000   0.0000  -0.0659
  -1.500  -0.0280   0.00785   0.00154  -0.0118  0.5487  0.0595  -1.0752   0.0000   0.0000   0.0000  -0.1879
  -1.400  -0.0169   0.00784   0.00152  -0.0118  0.5380  0.0635  -1.0286   0.0000   0.0000   0.0000  -0.4690
  -1.300  -0.0058   0.00784   0.00149  -0.0117  0.5272  0.0682  -0.9827   0.0000   0.0000   0.0000  -1.8096
  -1.200   0.0053   0.00783   0.00147  -0.0117  0.5167  0.0742  -0.9370   0.0000   0.0000   0.0000   2.5154
  -1.100   0.0164   0.00781   0.00145  -0.0116  0.5071  0.0823  -0.8920   0.0000   0.0000   0.0000   0.9742
  -1.000   0.0273   0.00778   0.00143  -0.0116  0.4972  0.0940  -0.8478   0.0000   0.0000   0.0000   0.6792
  -0.900   0.0381   0.00772   0.00140  -0.0115  0.4869  0.1152  -0.8046   0.0000   0.0000   0.0000   0.5543
  -0.800   0.0452   0.00707   0.00125  -0.0110  0.4783  0.2843  -0.7714   0.0000   0.0000   0.0000   0.4948
  -0.700   0.0545   0.00682   0.00120  -0.0108  0.4686  0.3556  -0.7322   0.0000   0.0000   0.0000   0.4475
  -0.600   0.0643   0.00664   0.00117  -0.0106  0.4582  0.4111  -0.6955   0.0000   0.0000   0.0000   0.4136
  -0.500   0.0744   0.00649   0.00115  -0.0104  0.4483  0.4585  -0.6592   0.0000   0.0000   0.0000   0.3884
  -0.300   0.0949   0.00630   0.00113  -0.0101  0.4287  0.5333  -0.6708   0.0000   0.0000   0.0000   0.3540
  -0.200   0.1054   0.00623   0.00112  -0.0099  0.4194  0.5629  -0.6846   0.0000   0.0000   0.0000   0.3419
  -0.100   0.1161   0.00618   0.00112  -0.0098  0.4104  0.5893  -0.6986   0.0000   0.0000   0.0000   0.3320
   0.000   0.1266   0.00615   0.00112  -0.0097  0.4009  0.6151  -0.7125   0.0000   0.0000   0.0000   0.3236
   0.100   0.1372   0.00611   0.00113  -0.0096  0.3913  0.6393  -0.7266   0.0000   0.0000   0.0000   0.3165
   0.200   0.1479   0.00608   0.00113  -0.0094  0.3821  0.6615  -0.7407   0.0000   0.0000   0.0000   0.3105
   0.300   0.1585   0.00606   0.00114  -0.0093  0.3727  0.6823  -0.7548   0.0000   0.0000   0.0000   0.3052
   0.400   0.1693   0.00606   0.00115  -0.0092  0.3631  0.7013  -0.7693   0.0000   0.0000   0.0000   0.3006
   0.500   0.1800   0.00604   0.00116  -0.0090  0.3544  0.7197  -0.7842   0.0000   0.0000   0.0000   0.2965
   0.600   0.1906   0.00603   0.00118  -0.0089  0.3460  0.7378  -0.7992   0.0000   0.0000   0.0000   0.2929
   0.700   0.2014   0.00603   0.00119  -0.0087  0.3377  0.7543  -0.8143   0.0000   0.0000   0.0000   0.2896
   0.800   0.2122   0.00603   0.00121  -0.0086  0.3303  0.7701  -0.8295   0.0000   0.0000   0.0000   0.2867
   0.900   0.2228   0.00605   0.00123  -0.0085  0.3223  0.7855  -0.8446   0.0000   0.0000   0.0000   0.2840
   1.000   0.2337   0.00605   0.00125  -0.0083  0.3149  0.7999  -0.8599   0.0000   0.0000   0.0000   0.2815
   1.100   0.2444   0.00606   0.00127  -0.0082  0.3077  0.8137  -0.8752   0.0000   0.0000   0.0000   0.2793
   1.200   0.2551   0.00608   0.00130  -0.0080  0.3004  0.8269  -0.8906   0.0000   0.0000   0.0000   0.2772
   1.300   0.2658   0.00609   0.00132  -0.0079  0.2940  0.8400  -0.9061   0.0000   0.0000   0.0000   0.2752
   1.400   0.2765   0.00611   0.00135  -0.0077  0.2875  0.8524  -0.9223   0.0000   0.0000   0.0000   0.2733
   1.500   0.2871   0.00612   0.00138  -0.0075  0.2821  0.8649  -0.9384   0.0000   0.0000   0.0000   0.2716
   1.600   0.2976   0.00614   0.00141  -0.0073  0.2767  0.8781  -0.9546   0.0000   0.0000   0.0000   0.2698
   1.700   0.3081   0.00616   0.00145  -0.0070  0.2718  0.8900  -0.9707   0.0000   0.0000   0.0000   0.2681
   1.800   0.3188   0.00618   0.00148  -0.0068  0.2672  0.8993  -0.9871   0.0000   0.0000   0.0000   0.2666
   1.900   0.3296   0.00623   0.00151  -0.0067  0.2624  0.9056  -1.0036   0.0000   0.0000   0.0000   0.2654
   2.000   0.3406   0.00626   0.00153  -0.0066  0.2583  0.9111  -1.0204   0.0000   0.0000   0.0000   0.2644
   2.100   0.3516   0.00630   0.00156  -0.0065  0.2542  0.9160  -1.0372   0.0000   0.0000   0.0000   0.2635
   2.200   0.3625   0.00634   0.00160  -0.0063  0.2500  0.9211  -1.0543   0.0000   0.0000   0.0000   0.2625
   2.300   0.3735   0.00638   0.00162  -0.0062  0.2469  0.9258  -1.0721   0.0000   0.0000   0.0000   0.2616
   2.400   0.3844   0.00641   0.00165  -0.0061  0.2437  0.9303  -1.0898   0.0000   0.0000   0.0000   0.2607
   2.500   0.3954   0.00646   0.00168  -0.0060  0.2405  0.9351  -1.1076   0.0000   0.0000   0.0000   0.2600
   2.600   0.4062   0.00650   0.00172  -0.0058  0.2375  0.9390  -1.1253   0.0000   0.0000   0.0000   0.2591
   2.700   0.4172   0.00653   0.00175  -0.0057  0.2351  0.9433  -1.1433   0.0000   0.0000   0.0000   0.2584
   2.800   0.4281   0.00657   0.00178  -0.0056  0.2324  0.9471  -1.1613   0.0000   0.0000   0.0000   0.2577
   2.900   0.4390   0.00662   0.00181  -0.0055  0.2297  0.9508  -1.1793   0.0000   0.0000   0.0000   0.2570
   3.000   0.4497   0.00667   0.00185  -0.0053  0.2268  0.9549  -1.1972   0.0000   0.0000   0.0000   0.2563
   3.100   0.4609   0.00671   0.00189  -0.0052  0.2249  0.9579  -1.2165   0.0000   0.0000   0.0000   0.2558
   3.200   0.4720   0.00674   0.00192  -0.0051  0.2229  0.9613  -1.2358   0.0000   0.0000   0.0000   0.2552
   3.300   0.4829   0.00679   0.00195  -0.0050  0.2209  0.9647  -1.2550   0.0000   0.0000   0.0000   0.2547
   3.400   0.4945   0.00684   0.00199  -0.0050  0.2187  0.9671  -1.2747   0.0000   0.0000   0.0000   0.2544
   3.500   0.5055   0.00689   0.00203  -0.0050  0.2164  0.9702  -1.2942   0.0000   0.0000   0.0000   0.2539
   3.600   0.5168   0.00694   0.00206  -0.0049  0.2146  0.9730  -1.3138   0.0000   0.0000   0.0000   0.2536
   3.700   0.5291   0.00698   0.00210  -0.0051  0.2129  0.9749  -1.3346   0.0000   0.0000   0.0000   0.2536
   3.800   0.5410   0.00702   0.00214  -0.0052  0.2111  0.9771  -1.3554   0.0000   0.0000   0.0000   0.2535
   3.900   0.5523   0.00707   0.00217  -0.0052  0.2092  0.9798  -1.3764   0.0000   0.0000   0.0000   0.2532
   4.000   0.5650   0.00713   0.00222  -0.0055  0.2072  0.9812  -1.3987   0.0000   0.0000   0.0000   0.2535
   4.100   0.5779   0.00719   0.00227  -0.0058  0.2051  0.9825  -1.4213   0.0000   0.0000   0.0000   0.2538
   4.200   0.5909   0.00724   0.00231  -0.0062  0.2037  0.9838  -1.4441   0.0000   0.0000   0.0000   0.2541
   4.300   0.6035   0.00728   0.00234  -0.0065  0.2023  0.9854  -1.4668   0.0000   0.0000   0.0000   0.2543
   4.400   0.6158   0.00733   0.00238  -0.0067  0.2006  0.9871  -1.4891   0.0000   0.0000   0.0000   0.2543
   4.500   0.6296   0.00738   0.00243  -0.0073  0.1988  0.9878  -1.5136   0.0000   0.0000   0.0000   0.2549
   4.600   0.6435   0.00744   0.00247  -0.0078  0.1970  0.9884  -1.5389   0.0000   0.0000   0.0000   0.2555
   4.700   0.6574   0.00751   0.00253  -0.0084  0.1950  0.9889  -1.5643   0.0000   0.0000   0.0000   0.2561
   4.800   0.6714   0.00757   0.00258  -0.0091  0.1934  0.9895  -1.5898   0.0000   0.0000   0.0000   0.2566
   4.900   0.6854   0.00761   0.00262  -0.0097  0.1922  0.9901  -1.6156   0.0000   0.0000   0.0000   0.2571
   5.000   0.6992   0.00766   0.00266  -0.0102  0.1907  0.9907  -1.6413   0.0000   0.0000   0.0000   0.2576
   5.100   0.7127   0.00771   0.00271  -0.0107  0.1891  0.9915  -1.6673   0.0000   0.0000   0.0000   0.2579
   5.200   0.7260   0.00777   0.00275  -0.0112  0.1874  0.9924  -1.6938   0.0000   0.0000   0.0000   0.2582
   5.300   0.7394   0.00784   0.00281  -0.0117  0.1857  0.9931  -1.7206   0.0000   0.0000   0.0000   0.2585
   5.400   0.7533   0.00792   0.00287  -0.0123  0.1837  0.9935  -1.7479   0.0000   0.0000   0.0000   0.2589
   5.500   0.7674   0.00796   0.00291  -0.0129  0.1826  0.9939  -1.7757   0.0000   0.0000   0.0000   0.2593
   5.600   0.7814   0.00800   0.00296  -0.0135  0.1813  0.9943  -1.8038   0.0000   0.0000   0.0000   0.2597
   5.700   0.7952   0.00805   0.00300  -0.0141  0.1798  0.9948  -1.8329   0.0000   0.0000   0.0000   0.2601
   5.800   0.8090   0.00811   0.00305  -0.0147  0.1782  0.9953  -1.8621   0.0000   0.0000   0.0000   0.2604
   5.900   0.8226   0.00817   0.00310  -0.0152  0.1766  0.9959  -1.8912   0.0000   0.0000   0.0000   0.2606
   6.000   0.8361   0.00824   0.00316  -0.0157  0.1748  0.9964  -1.9202   0.0000   0.0000   0.0000   0.2608
   6.100   0.8495   0.00832   0.00323  -0.0162  0.1731  0.9970  -1.9500   0.0000   0.0000   0.0000   0.2610
   6.200   0.8632   0.00836   0.00327  -0.0168  0.1720  0.9975  -1.9811   0.0000   0.0000   0.0000   0.2612
   6.300   0.8771   0.00841   0.00333  -0.0174  0.1706  0.9979  -2.0126   0.0000   0.0000   0.0000   0.2615
   6.400   0.8909   0.00846   0.00338  -0.0179  0.1692  0.9982  -2.0441   0.0000   0.0000   0.0000   0.2618
   6.500   0.9046   0.00852   0.00343  -0.0185  0.1676  0.9986  -2.0768   0.0000   0.0000   0.0000   0.2620
   6.600   0.9182   0.00859   0.00349  -0.0191  0.1658  0.9990  -2.1099   0.0000   0.0000   0.0000   0.2622
   6.700   0.9317   0.00868   0.00356  -0.0196  0.1639  0.9994  -2.1429   0.0000   0.0000   0.0000   0.2623
   6.800   0.9454   0.00873   0.00362  -0.0201  0.1627  0.9998  -2.1777   0.0000   0.0000   0.0000   0.2625
   6.900   0.9572   0.00878   0.00367  -0.0203  0.1615  1.0000  -2.2102   0.0000   0.0000   0.0000   0.2623
   7.100   0.9759   0.00888   0.00377  -0.0195  0.1588  1.0000  -2.2704   0.0000   0.0000   0.0000   0.2608
   7.200   0.9851   0.00894   0.00383  -0.0191  0.1574  1.0000  -2.3013   0.0000   0.0000   0.0000   0.2601
   7.300   0.9943   0.00901   0.00389  -0.0187  0.1559  1.0000  -2.3337   0.0000   0.0000   0.0000   0.2594
   7.400   1.0033   0.00909   0.00396  -0.0183  0.1541  1.0000  -2.3668   0.0000   0.0000   0.0000   0.2587
   7.500   1.0127   0.00914   0.00402  -0.0179  0.1530  1.0000  -2.4025   0.0000   0.0000   0.0000   0.2580
   7.600   1.0222   0.00919   0.00407  -0.0176  0.1518  1.0000  -2.4407   0.0000   0.0000   0.0000   0.2574
   7.700   1.0317   0.00925   0.00413  -0.0172  0.1504  1.0000  -2.4813   0.0000   0.0000   0.0000   0.2568
   7.800   1.0410   0.00931   0.00419  -0.0168  0.1489  1.0000  -2.5243   0.0000   0.0000   0.0000   0.2561
   7.900   1.0503   0.00938   0.00426  -0.0164  0.1472  1.0000  -2.5697   0.0000   0.0000   0.0000   0.2555
   8.000   1.0594   0.00947   0.00434  -0.0160  0.1453  1.0000  -2.6155   0.0000   0.0000   0.0000   0.2549
   8.100   1.0688   0.00955   0.00441  -0.0157  0.1437  1.0000  -2.6650   0.0000   0.0000   0.0000   0.2543
   8.200   1.0784   0.00960   0.00447  -0.0153  0.1424  1.0000  -2.7162   0.0000   0.0000   0.0000   0.2537
   8.300   1.0880   0.00966   0.00454  -0.0150  0.1408  1.0000  -2.7674   0.0000   0.0000   0.0000   0.2531
   8.400   1.0974   0.00974   0.00461  -0.0147  0.1389  1.0000  -2.8222   0.0000   0.0000   0.0000   0.2526
   8.500   1.1067   0.00983   0.00469  -0.0143  0.1370  1.0000  -2.8773   0.0000   0.0000   0.0000   0.2520
   8.600   1.1159   0.00993   0.00478  -0.0139  0.1349  1.0000  -2.9324   0.0000   0.0000   0.0000   0.2514
   8.700   1.1257   0.00999   0.00484  -0.0136  0.1336  1.0000  -2.9897   0.0000   0.0000   0.0000   0.2509
   8.800   1.1354   0.01005   0.00492  -0.0133  0.1320  1.0000  -3.0491   0.0000   0.0000   0.0000   0.2504
   8.900   1.1450   0.01014   0.00500  -0.0130  0.1301  1.0000  -3.1109   0.0000   0.0000   0.0000   0.2499
   9.000   1.1544   0.01024   0.00508  -0.0127  0.1281  1.0000  -3.1725   0.0000   0.0000   0.0000   0.2494
   9.100   1.1636   0.01035   0.00519  -0.0123  0.1260  1.0000  -3.2341   0.0000   0.0000   0.0000   0.2488
   9.200   1.1734   0.01041   0.00526  -0.0121  0.1246  1.0000  -3.2982   0.0000   0.0000   0.0000   0.2484
   9.300   1.1832   0.01049   0.00534  -0.0118  0.1229  1.0000  -3.3623   0.0000   0.0000   0.0000   0.2479
   9.400   1.1927   0.01059   0.00543  -0.0115  0.1208  1.0000  -3.4265   0.0000   0.0000   0.0000   0.2475
   9.500   1.2021   0.01071   0.00554  -0.0112  0.1186  1.0000  -3.4939   0.0000   0.0000   0.0000   0.2470
   9.600   1.2118   0.01081   0.00564  -0.0109  0.1168  1.0000  -3.5641   0.0000   0.0000   0.0000   0.2465
   9.700   1.2217   0.01089   0.00573  -0.0107  0.1151  1.0000  -3.6359   0.0000   0.0000   0.0000   0.2461
   9.800   1.2314   0.01099   0.00583  -0.0104  0.1130  1.0000  -3.7077   0.0000   0.0000   0.0000   0.2457
   9.900   1.2409   0.01112   0.00595  -0.0101  0.1106  1.0000  -3.7790   0.0000   0.0000   0.0000   0.2453
  10.000   1.2505   0.01125   0.00606  -0.0099  0.1084  1.0000  -3.8512   0.0000   0.0000   0.0000   0.2448
  10.100   1.2604   0.01134   0.00616  -0.0096  0.1063  1.0000  -3.9251   0.0000   0.0000   0.0000   0.2444
  10.200   1.2700   0.01147   0.00628  -0.0094  0.1039  1.0000  -3.9986   0.0000   0.0000   0.0000   0.2440
  10.300   1.2794   0.01162   0.00641  -0.0091  0.1014  1.0000  -4.0715   0.0000   0.0000   0.0000   0.2436
  10.400   1.2892   0.01173   0.00653  -0.0089  0.0995  1.0000  -4.1466   0.0000   0.0000   0.0000   0.2432
  10.500   1.2989   0.01185   0.00665  -0.0087  0.0971  1.0000  -4.2239   0.0000   0.0000   0.0000   0.2428
  10.600   1.3081   0.01201   0.00680  -0.0084  0.0943  1.0000  -4.3038   0.0000   0.0000   0.0000   0.2424
  10.700   1.3176   0.01216   0.00694  -0.0081  0.0918  1.0000  -4.3852   0.0000   0.0000   0.0000   0.2420
  10.800   1.3271   0.01230   0.00707  -0.0079  0.0889  1.0000  -4.4673   0.0000   0.0000   0.0000   0.2416
  10.900   1.3360   0.01250   0.00725  -0.0076  0.0858  1.0000  -4.5475   0.0000   0.0000   0.0000   0.2412
  11.000   1.3455   0.01264   0.00739  -0.0073  0.0833  1.0000  -4.6308   0.0000   0.0000   0.0000   0.2408
  11.100   1.3546   0.01281   0.00755  -0.0070  0.0803  1.0000  -4.7131   0.0000   0.0000   0.0000   0.2404
  11.200   1.3635   0.01300   0.00773  -0.0067  0.0775  1.0000  -4.7950   0.0000   0.0000   0.0000   0.2400
  11.300   1.3728   0.01317   0.00789  -0.0064  0.0748  1.0000  -4.8789   0.0000   0.0000   0.0000   0.2396
  11.400   1.3813   0.01339   0.00809  -0.0061  0.0717  1.0000  -4.9603   0.0000   0.0000   0.0000   0.2391
  11.500   1.3904   0.01356   0.00827  -0.0058  0.0691  1.0000  -5.0446   0.0000   0.0000   0.0000   0.2387
  11.600   1.3989   0.01379   0.00847  -0.0054  0.0659  1.0000  -5.1270   0.0000   0.0000   0.0000   0.2383
  11.700   1.4075   0.01400   0.00868  -0.0051  0.0630  1.0000  -5.2101   0.0000   0.0000   0.0000   0.2378
  11.800   1.4158   0.01423   0.00889  -0.0047  0.0598  1.0000  -5.2927   0.0000   0.0000   0.0000   0.2374
  11.900   1.4240   0.01447   0.00912  -0.0043  0.0569  1.0000  -5.3753   0.0000   0.0000   0.0000   0.2369
  12.000   1.4322   0.01472   0.00935  -0.0039  0.0538  1.0000  -5.4579   0.0000   0.0000   0.0000   0.2365
  12.100   1.4401   0.01497   0.00959  -0.0035  0.0510  1.0000  -5.5403   0.0000   0.0000   0.0000   0.2360
  12.200   1.4482   0.01521   0.00983  -0.0031  0.0484  1.0000  -5.6254   0.0000   0.0000   0.0000   0.2355
  12.300   1.4558   0.01549   0.01009  -0.0026  0.0459  1.0000  -5.7135   0.0000   0.0000   0.0000   0.2350
  12.400   1.4639   0.01571   0.01032  -0.0022  0.0437  1.0000  -5.8049   0.0000   0.0000   0.0000   0.2346
  12.500   1.4713   0.01600   0.01059  -0.0017  0.0414  1.0000  -5.8926   0.0000   0.0000   0.0000   0.2340
  12.600   1.4792   0.01623   0.01083  -0.0013  0.0395  1.0000  -5.9840   0.0000   0.0000   0.0000   0.2336
  12.700   1.4867   0.01649   0.01109  -0.0008  0.0376  1.0000  -6.0739   0.0000   0.0000   0.0000   0.2331
  12.800   1.4936   0.01680   0.01138  -0.0003  0.0357  1.0000  -6.1611   0.0000   0.0000   0.0000   0.2325
  12.900   1.5014   0.01702   0.01162   0.0002  0.0343  1.0000  -6.2538   0.0000   0.0000   0.0000   0.2321
  13.000   1.5086   0.01729   0.01190   0.0007  0.0327  1.0000  -6.3434   0.0000   0.0000   0.0000   0.2315
  13.100   1.5151   0.01760   0.01220   0.0013  0.0311  1.0000  -6.4301   0.0000   0.0000   0.0000   0.2310
  13.200   1.5225   0.01784   0.01246   0.0017  0.0300  1.0000  -6.5222   0.0000   0.0000   0.0000   0.2305
  13.300   1.5294   0.01811   0.01273   0.0023  0.0288  1.0000  -6.6125   0.0000   0.0000   0.0000   0.2300
  13.400   1.5356   0.01842   0.01304   0.0029  0.0276  1.0000  -6.6991   0.0000   0.0000   0.0000   0.2294
  13.500   1.5414   0.01873   0.01336   0.0036  0.0264  1.0000  -6.7841   0.0000   0.0000   0.0000   0.2288
  13.600   1.5479   0.01897   0.01362   0.0042  0.0256  1.0000  -6.8736   0.0000   0.0000   0.0000   0.2282
  13.700   1.5532   0.01924   0.01390   0.0050  0.0248  1.0000  -6.9578   0.0000   0.0000   0.0000   0.2275
  13.800   1.5577   0.01955   0.01422   0.0059  0.0239  1.0000  -7.0378   0.0000   0.0000   0.0000   0.2267
  13.900   1.5617   0.01989   0.01457   0.0068  0.0230  1.0000  -7.1149   0.0000   0.0000   0.0000   0.2260
  14.000   1.5660   0.02022   0.01491   0.0077  0.0222  1.0000  -7.1937   0.0000   0.0000   0.0000   0.2252
  14.100   1.5713   0.02050   0.01521   0.0084  0.0217  1.0000  -7.2793   0.0000   0.0000   0.0000   0.2246
  14.200   1.5761   0.02081   0.01554   0.0092  0.0211  1.0000  -7.3622   0.0000   0.0000   0.0000   0.2239
  14.300   1.5804   0.02116   0.01591   0.0100  0.0205  1.0000  -7.4427   0.0000   0.0000   0.0000   0.2233
  14.400   1.5842   0.02154   0.01631   0.0108  0.0199  1.0000  -7.5202   0.0000   0.0000   0.0000   0.2226
  14.500   1.5876   0.02196   0.01674   0.0116  0.0194  1.0000  -7.5954   0.0000   0.0000   0.0000   0.2219
  14.600   1.5906   0.02241   0.01721   0.0124  0.0187  1.0000  -7.6681   0.0000   0.0000   0.0000   0.2212
  14.700   1.5946   0.02281   0.01763   0.0131  0.0183  1.0000  -7.7472   0.0000   0.0000   0.0000   0.2206
  14.800   1.5990   0.02319   0.01804   0.0137  0.0180  1.0000  -7.8298   0.0000   0.0000   0.0000   0.2200
  14.900   1.6030   0.02360   0.01847   0.0143  0.0177  1.0000  -7.9098   0.0000   0.0000   0.0000   0.2194
  15.000   1.6066   0.02405   0.01895   0.0149  0.0174  1.0000  -7.9876   0.0000   0.0000   0.0000   0.2189
  15.100   1.6098   0.02454   0.01947   0.0155  0.0170  1.0000  -8.0631   0.0000   0.0000   0.0000   0.2183
  15.200   1.6125   0.02508   0.02003   0.0161  0.0167  1.0000  -8.1357   0.0000   0.0000   0.0000   0.2177
  15.300   1.6147   0.02567   0.02064   0.0167  0.0163  1.0000  -8.2052   0.0000   0.0000   0.0000   0.2172
  15.400   1.6165   0.02631   0.02131   0.0172  0.0159  1.0000  -8.2721   0.0000   0.0000   0.0000   0.2166
  15.500   1.6178   0.02701   0.02204   0.0177  0.0155  1.0000  -8.3355   0.0000   0.0000   0.0000   0.2161
  15.600   1.6184   0.02779   0.02285   0.0182  0.0151  1.0000  -8.3955   0.0000   0.0000   0.0000   0.2156
  15.700   1.6204   0.02848   0.02357   0.0185  0.0149  1.0000  -8.4687   0.0000   0.0000   0.0000   0.2152
  15.800   1.6232   0.02913   0.02426   0.0188  0.0148  1.0000  -8.5477   0.0000   0.0000   0.0000   0.2148
  15.900   1.6255   0.02984   0.02499   0.0191  0.0146  1.0000  -8.6241   0.0000   0.0000   0.0000   0.2144
  16.000   1.6274   0.03060   0.02579   0.0193  0.0145  1.0000  -8.6971   0.0000   0.0000   0.0000   0.2141
  16.100   1.6287   0.03143   0.02666   0.0194  0.0143  1.0000  -8.7664   0.0000   0.0000   0.0000   0.2138
  16.200   1.6297   0.03233   0.02759   0.0195  0.0141  1.0000  -8.8328   0.0000   0.0000   0.0000   0.2135
  16.300   1.6302   0.03330   0.02860   0.0196  0.0139  1.0000  -8.8960   0.0000   0.0000   0.0000   0.2132
  16.400   1.6302   0.03435   0.02968   0.0195  0.0137  1.0000  -8.9557   0.0000   0.0000   0.0000   0.2130
  16.500   1.6297   0.03549   0.03086   0.0194  0.0135  1.0000  -9.0111   0.0000   0.0000   0.0000   0.2128
  16.600   1.6286   0.03672   0.03212   0.0193  0.0133  1.0000  -9.0617   0.0000   0.0000   0.0000   0.2126
  16.700   1.6270   0.03805   0.03349   0.0190  0.0132  1.0000  -9.1078   0.0000   0.0000   0.0000   0.2125
  16.800   1.6247   0.03949   0.03497   0.0187  0.0130  1.0000  -9.1489   0.0000   0.0000   0.0000   0.2125
  16.900   1.6219   0.04104   0.03657   0.0182  0.0129  1.0000  -9.1848   0.0000   0.0000   0.0000   0.2124
  17.000   1.6183   0.04272   0.03829   0.0177  0.0127  1.0000  -9.2147   0.0000   0.0000   0.0000   0.2125
  17.100   1.6139   0.04454   0.04016   0.0171  0.0126  1.0000  -9.2368   0.0000   0.0000   0.0000   0.2126
  17.200   1.6085   0.04651   0.04218   0.0163  0.0124  1.0000  -9.2512   0.0000   0.0000   0.0000   0.2127
  17.300   1.6023   0.04864   0.04436   0.0155  0.0123  1.0000  -9.2579   0.0000   0.0000   0.0000   0.2129
  17.400   1.5952   0.05093   0.04671   0.0145  0.0122  1.0000  -9.2563   0.0000   0.0000   0.0000   0.2132
  17.500   1.5873   0.05339   0.04922   0.0135  0.0121  1.0000  -9.2469   0.0000   0.0000   0.0000   0.2136
  17.600   1.5783   0.05600   0.05189   0.0124  0.0121  1.0000  -9.2284   0.0000   0.0000   0.0000   0.2140
  17.700   1.5684   0.05875   0.05471   0.0112  0.0120  1.0000  -9.2022   0.0000   0.0000   0.0000   0.2144
  17.800   1.5578   0.06164   0.05766   0.0099  0.0120  1.0000  -9.1690   0.0000   0.0000   0.0000   0.2149
  17.900   1.5465   0.06467   0.06076   0.0085  0.0120  1.0000  -9.1285   0.0000   0.0000   0.0000   0.2155
  18.000   1.5345   0.06781   0.06395   0.0072  0.0120  1.0000  -9.0821   0.0000   0.0000   0.0000   0.2161
  18.100   1.5218   0.07106   0.06727   0.0057  0.0120  1.0000  -9.0280   0.0000   0.0000   0.0000   0.2167
  18.200   1.5086   0.07440   0.07067   0.0043  0.0121  1.0000  -8.9690   0.0000   0.0000   0.0000   0.2174
  18.300   1.4950   0.07784   0.07417   0.0028  0.0121  1.0000  -8.9048   0.0000   0.0000   0.0000   0.2181
  18.400   1.4808   0.08139   0.07779   0.0012  0.0122  1.0000  -8.8348   0.0000   0.0000   0.0000   0.2189
  18.500   1.4664   0.08497   0.08143  -0.0004  0.0122  1.0000  -8.7615   0.0000   0.0000   0.0000   0.2198
  18.600   1.4518   0.08858   0.08510  -0.0020  0.0123  1.0000  -8.6849   0.0000   0.0000   0.0000   0.2206
  18.700   1.4370   0.09227   0.08885  -0.0036  0.0124  1.0000  -8.6049   0.0000   0.0000   0.0000   0.2216
  18.800   1.4223   0.09599   0.09263  -0.0053  0.0124  1.0000  -8.5236   0.0000   0.0000   0.0000   0.2225
  18.900   1.4078   0.09970   0.09640  -0.0070  0.0125  1.0000  -8.4426   0.0000   0.0000   0.0000   0.2235
  19.000   1.3936   0.10336   0.10011  -0.0087  0.0126  1.0000  -8.3626   0.0000   0.0000   0.0000   0.2246
  19.100   1.3799   0.10697   0.10377  -0.0103  0.0126  1.0000  -8.2852   0.0000   0.0000   0.0000   0.2256
  19.200   1.3666   0.11057   0.10742  -0.0120  0.0127  1.0000  -8.2087   0.0000   0.0000   0.0000   0.2267
  19.300   1.3537   0.11415   0.11105  -0.0137  0.0127  1.0000  -8.1346   0.0000   0.0000   0.0000   0.2279
  19.400   1.3420   0.11756   0.11450  -0.0154  0.0127  1.0000  -8.0695   0.0000   0.0000   0.0000   0.2290
  19.500   1.3310   0.12087   0.11786  -0.0170  0.0127  1.0000  -8.0085   0.0000   0.0000   0.0000   0.2301
  19.600   1.3199   0.12421   0.12124  -0.0187  0.0127  1.0000  -7.9456   0.0000   0.0000   0.0000   0.2313
  19.700   1.3105   0.12726   0.12433  -0.0202  0.0127  1.0000  -7.8977   0.0000   0.0000   0.0000   0.2323
  19.800   1.3005   0.13049   0.12760  -0.0219  0.0127  1.0000  -7.8407   0.0000   0.0000   0.0000   0.2335
  19.900   1.2924   0.13341   0.13055  -0.0234  0.0126  1.0000  -7.8009   0.0000   0.0000   0.0000   0.2346
  20.000   1.2835   0.13650   0.13368  -0.0250  0.0126  1.0000  -7.7514   0.0000   0.0000   0.0000   0.2358


