xflr5 v6.61

 Calculated polar for: NACA 23012

 1 1 Reynolds number fixed          Mach number fixed         

 xtrf =   1.000 (top)        1.000 (bottom)
 Mach =   0.000     Re =     1.000 e 6     Ncrit =   9.000

  alpha     CL        CD       CDp       Cm    Top Xtr Bot Xtr   Cpmin    Chinge    XCp    
 ------- -------- --------- --------- -------- ------- ------- -------- --------- ---------
  -2.000  -0.0779   0.00840   0.00201  -0.0130  0.6911  0.0551  -1.2912   0.0000   0.0000   0.0000   0.0748
  -1.500  -0.0240   0.00830   0.00180  -0.0124  0.6357  0.0744  -1.0502   0.0000   0.0000   0.0000  -0.2854
  -1.000   0.0224   0.00704   0.00143  -0.0111  0.5839  0.3877  -0.8489   0.0000   0.0000   0.0000   0.7544
  -0.500   0.0709   0.00635   0.00132  -0.0099  0.5308  0.6125  -0.6558   0.0000   0.0000   0.0000   0.3883
   0.000   0.1219   0.00616   0.00133  -0.0088  0.4780  0.7327  -0.7028   0.0000   0.0000   0.0000   0.3189
   0.500   0.1734   0.00617   0.00140  -0.0076  0.4269  0.8168  -0.7725   0.0000   0.0000   0.0000   0.2901
   1.500   0.2758   0.00657   0.00170  -0.0048  0.3334  0.9270  -0.9213   0.0000   0.0000   0.0000   0.2629
   2.000   0.3291   0.00689   0.00187  -0.0040  0.2964  0.9501  -1.0019   0.0000   0.0000   0.0000   0.2571
   2.500   0.3852   0.00721   0.00205  -0.0038  0.2696  0.9666  -1.0888   0.0000   0.0000   0.0000   0.2547
   3.500   0.5150   0.00785   0.00247  -0.0077  0.2346  0.9843  -1.2908   0.0000   0.0000   0.0000   0.2591
   4.000   0.5855   0.00817   0.00270  -0.0110  0.2226  0.9887  -1.4057   0.0000   0.0000   0.0000   0.2626
   4.500   0.6553   0.00848   0.00295  -0.0142  0.2124  0.9931  -1.5261   0.0000   0.0000   0.0000   0.2651
   5.000   0.7263   0.00879   0.00321  -0.0177  0.2031  0.9961  -1.6551   0.0000   0.0000   0.0000   0.2674
   6.000   0.8508   0.00934   0.00371  -0.0210  0.1871  1.0000  -1.9192   0.0000   0.0000   0.0000   0.2667
   6.500   0.8966   0.00963   0.00401  -0.0191  0.1805  1.0000  -2.0448   0.0000   0.0000   0.0000   0.2629
   7.000   0.9421   0.00999   0.00433  -0.0172  0.1732  1.0000  -2.1807   0.0000   0.0000   0.0000   0.2593
   7.500   0.9890   0.01026   0.00464  -0.0156  0.1667  1.0000  -2.3389   0.0000   0.0000   0.0000   0.2561
   8.000   1.0359   0.01062   0.00502  -0.0139  0.1596  1.0000  -2.5422   0.0000   0.0000   0.0000   0.2532
   8.500   1.0829   0.01102   0.00541  -0.0124  0.1518  1.0000  -2.7927   0.0000   0.0000   0.0000   0.2506
   9.000   1.1304   0.01144   0.00583  -0.0111  0.1431  1.0000  -3.0772   0.0000   0.0000   0.0000   0.2483
   9.500   1.1785   0.01190   0.00630  -0.0099  0.1341  1.0000  -3.3876   0.0000   0.0000   0.0000   0.2462
  10.000   1.2267   0.01241   0.00683  -0.0089  0.1247  1.0000  -3.7345   0.0000   0.0000   0.0000   0.2443
  10.500   1.2746   0.01298   0.00742  -0.0079  0.1146  1.0000  -4.0923   0.0000   0.0000   0.0000   0.2425
  11.000   1.3211   0.01368   0.00810  -0.0068  0.1031  1.0000  -4.4843   0.0000   0.0000   0.0000   0.2406
  11.500   1.3660   0.01450   0.00891  -0.0055  0.0901  1.0000  -4.8840   0.0000   0.0000   0.0000   0.2387
  12.000   1.4081   0.01551   0.00989  -0.0039  0.0761  1.0000  -5.2843   0.0000   0.0000   0.0000   0.2366
  12.500   1.4467   0.01674   0.01108  -0.0020  0.0614  1.0000  -5.6967   0.0000   0.0000   0.0000   0.2344
  13.000   1.4806   0.01821   0.01251   0.0005  0.0479  1.0000  -6.1116   0.0000   0.0000   0.0000   0.2318
  13.500   1.5101   0.01976   0.01408   0.0036  0.0384  1.0000  -6.5144   0.0000   0.0000   0.0000   0.2289
  14.000   1.5303   0.02149   0.01586   0.0079  0.0318  1.0000  -6.8786   0.0000   0.0000   0.0000   0.2252
  14.500   1.5475   0.02354   0.01800   0.0117  0.0272  1.0000  -7.2316   0.0000   0.0000   0.0000   0.2218
  15.000   1.5622   0.02600   0.02058   0.0148  0.0239  1.0000  -7.5735   0.0000   0.0000   0.0000   0.2189
  15.500   1.5706   0.02931   0.02404   0.0171  0.0214  1.0000  -7.8794   0.0000   0.0000   0.0000   0.2164
  16.000   1.5739   0.03367   0.02856   0.0181  0.0196  1.0000  -8.1643   0.0000   0.0000   0.0000   0.2146
  16.500   1.5646   0.04021   0.03532   0.0172  0.0183  1.0000  -8.3637   0.0000   0.0000   0.0000   0.2139
  17.000   1.5529   0.04797   0.04332   0.0145  0.0175  1.0000  -8.5369   0.0000   0.0000   0.0000   0.2143
  17.500   1.5207   0.05926   0.05491   0.0097  0.0169  1.0000  -8.5426   0.0000   0.0000   0.0000   0.2159
  18.000   1.4646   0.07466   0.07063   0.0029  0.0169  1.0000  -8.3400   0.0000   0.0000   0.0000   0.2190
  18.500   1.3923   0.09308   0.08938  -0.0052  0.0171  1.0000  -7.9743   0.0000   0.0000   0.0000   0.2236
  19.000   1.3261   0.11112   0.10769  -0.0134  0.0173  1.0000  -7.6196   0.0000   0.0000   0.0000   0.2289
  19.500   1.2786   0.12666   0.12344  -0.0209  0.0171  1.0000  -7.3878   0.0000   0.0000   0.0000   0.2340
  20.000   1.2462   0.14006   0.13699  -0.0278  0.0166  1.0000  -7.2597   0.0000   0.0000   0.0000   0.2389


