xflr5 v6.61

 Calculated polar for: NACA 23012

 1 1 Reynolds number fixed          Mach number fixed         

 xtrf =   1.000 (top)        1.000 (bottom)
 Mach =   0.000     Re =     2.000 e 6     Ncrit =   0.000

  alpha     CL        CD       CDp       Cm    Top Xtr Bot Xtr   Cpmin    Chinge    XCp    
 ------- -------- --------- --------- -------- ------- ------- -------- --------- ---------
 -10.000  -0.9543   0.01635   0.00929  -0.0177  0.0309  0.0264  -8.6289   0.0000   0.0000   0.0000   0.2216
  -9.500  -0.9049   0.01554   0.00837  -0.0167  0.0264  0.0223  -8.0382   0.0000   0.0000   0.0000   0.2222
  -9.000  -0.8545   0.01481   0.00754  -0.0158  0.0264  0.0223  -7.4588   0.0000   0.0000   0.0000   0.2226
  -8.500  -0.8034   0.01416   0.00679  -0.0150  0.0223  0.0185  -6.8922   0.0000   0.0000   0.0000   0.2229
  -8.000  -0.7517   0.01357   0.00611  -0.0143  0.0223  0.0185  -6.3393   0.0000   0.0000   0.0000   0.2230
  -7.500  -0.6993   0.01303   0.00550  -0.0136  0.0185  0.0150  -5.8019   0.0000   0.0000   0.0000   0.2229
  -7.000  -0.6464   0.01255   0.00494  -0.0130  0.0150  0.0119  -5.2806   0.0000   0.0000   0.0000   0.2226
  -6.500  -0.5931   0.01213   0.00445  -0.0125  0.0150  0.0119  -4.7763   0.0000   0.0000   0.0000   0.2220
  -6.000  -0.5392   0.01174   0.00400  -0.0120  0.0119  0.0092  -4.2899   0.0000   0.0000   0.0000   0.2210
  -5.500  -0.4850   0.01141   0.00361  -0.0116  0.0119  0.0092  -3.8463   0.0000   0.0000   0.0000   0.2196
  -5.000  -0.4304   0.01111   0.00325  -0.0113  0.0092  0.0067  -3.4302   0.0000   0.0000   0.0000   0.2175
  -4.500  -0.3755   0.01085   0.00295  -0.0110  0.0092  0.0067  -3.0305   0.0000   0.0000   0.0000   0.2146
  -4.000  -0.3203   0.01063   0.00268  -0.0107  0.0067  0.0047  -2.6480   0.0000   0.0000   0.0000   0.2104
  -3.500  -0.2648   0.01044   0.00245  -0.0105  0.0067  0.0047  -2.2826   0.0000   0.0000   0.0000   0.2042
  -3.000  -0.2091   0.01028   0.00225  -0.0104  0.0047  0.0030  -1.9501   0.0000   0.0000   0.0000   0.1942
  -2.500  -0.1532   0.01016   0.00210  -0.0102  0.0047  0.0030  -1.6483   0.0000   0.0000   0.0000   0.1767
  -2.000  -0.0972   0.01006   0.00197  -0.0101  0.0030  0.0017  -1.3618   0.0000   0.0000   0.0000   0.1383
  -1.500  -0.0411   0.00999   0.00188  -0.0101  0.0017  0.0008  -1.1010   0.0000   0.0000   0.0000  -0.0062
  -1.000   0.0152   0.00995   0.00181  -0.0100  0.0017  0.0008  -0.8685   0.0000   0.0000   0.0000   0.9228
  -0.500   0.0714   0.00994   0.00178  -0.0100  0.0008  0.0002  -0.6557   0.0000   0.0000   0.0000   0.3886
   0.000   0.1277   0.00994   0.00178  -0.0099  0.0008  0.0002  -0.7036   0.0000   0.0000   0.0000   0.3252
   0.500   0.1839   0.00998   0.00180  -0.0099  0.0002  0.0000  -0.7770   0.0000   0.0000   0.0000   0.3005
   1.000   0.2401   0.01003   0.00185  -0.0099  0.0002  0.0000  -0.8543   0.0000   0.0000   0.0000   0.2874
   1.500   0.2963   0.01011   0.00192  -0.0099  0.0000  0.0002  -0.9345   0.0000   0.0000   0.0000   0.2792
   2.000   0.3523   0.01022   0.00202  -0.0099  0.0000  0.0002  -1.0180   0.0000   0.0000   0.0000   0.2735
   2.500   0.4082   0.01034   0.00215  -0.0099  0.0002  0.0008  -1.1058   0.0000   0.0000   0.0000   0.2693
   3.000   0.4639   0.01049   0.00231  -0.0099  0.0008  0.0017  -1.1964   0.0000   0.0000   0.0000   0.2660
   3.500   0.5195   0.01067   0.00249  -0.0099  0.0008  0.0017  -1.2924   0.0000   0.0000   0.0000   0.2633
   4.000   0.5748   0.01086   0.00270  -0.0098  0.0017  0.0030  -1.3921   0.0000   0.0000   0.0000   0.2610
   4.500   0.6299   0.01109   0.00293  -0.0098  0.0017  0.0030  -1.4960   0.0000   0.0000   0.0000   0.2590
   5.000   0.6847   0.01133   0.00320  -0.0097  0.0030  0.0047  -1.6062   0.0000   0.0000   0.0000   0.2571
   5.500   0.7392   0.01161   0.00350  -0.0095  0.0030  0.0047  -1.7220   0.0000   0.0000   0.0000   0.2555
   6.000   0.7933   0.01192   0.00384  -0.0094  0.0047  0.0067  -1.8442   0.0000   0.0000   0.0000   0.2539
   6.500   0.8470   0.01225   0.00421  -0.0092  0.0067  0.0092  -1.9742   0.0000   0.0000   0.0000   0.2524
   7.000   0.9002   0.01262   0.00461  -0.0089  0.0067  0.0092  -2.1139   0.0000   0.0000   0.0000   0.2509
   7.500   0.9528   0.01303   0.00506  -0.0086  0.0092  0.0119  -2.2691   0.0000   0.0000   0.0000   0.2495
   8.000   1.0049   0.01347   0.00555  -0.0083  0.0092  0.0119  -2.4629   0.0000   0.0000   0.0000   0.2481
   8.500   1.0563   0.01395   0.00608  -0.0078  0.0119  0.0150  -2.7140   0.0000   0.0000   0.0000   0.2466
   9.000   1.1069   0.01448   0.00667  -0.0073  0.0150  0.0185  -2.9997   0.0000   0.0000   0.0000   0.2451
   9.500   1.1566   0.01506   0.00730  -0.0067  0.0150  0.0185  -3.3102   0.0000   0.0000   0.0000   0.2436
  10.000   1.2053   0.01569   0.00800  -0.0059  0.0185  0.0223  -3.6524   0.0000   0.0000   0.0000   0.2420
  10.500   1.2527   0.01637   0.00875  -0.0051  0.0185  0.0223  -4.0047   0.0000   0.0000   0.0000   0.2404
  11.000   1.2987   0.01712   0.00958  -0.0040  0.0223  0.0264  -4.3897   0.0000   0.0000   0.0000   0.2387
  11.500   1.3430   0.01794   0.01049  -0.0028  0.0264  0.0309  -4.7840   0.0000   0.0000   0.0000   0.2368
  12.000   1.3851   0.01883   0.01147  -0.0013  0.0264  0.0309  -5.1825   0.0000   0.0000   0.0000   0.2349
  12.500   1.4245   0.01983   0.01256   0.0006  0.0309  0.0357  -5.5970   0.0000   0.0000   0.0000   0.2327
  13.000   1.4602   0.02093   0.01377   0.0028  0.0309  0.0357  -6.0218   0.0000   0.0000   0.0000   0.2303
  13.500   1.4855   0.02212   0.01507   0.0068  0.0357  0.0408  -6.4075   0.0000   0.0000   0.0000   0.2268
  14.000   1.5098   0.02366   0.01673   0.0101  0.0357  0.0408  -6.7955   0.0000   0.0000   0.0000   0.2237
  14.500   1.5297   0.02560   0.01879   0.0132  0.0408  0.0463  -7.1661   0.0000   0.0000   0.0000   0.2208
  15.000   1.5448   0.02810   0.02144   0.0157  0.0408  0.0463  -7.5143   0.0000   0.0000   0.0000   0.2182
  15.500   1.5548   0.03144   0.02493   0.0174  0.0408  0.0463  -7.8333   0.0000   0.0000   0.0000   0.2161
  16.000   1.5585   0.03598   0.02965   0.0177  0.0463  0.0520  -8.1141   0.0000   0.0000   0.0000   0.2148
  16.500   1.5535   0.04230   0.03616   0.0163  0.0463  0.0520  -8.3469   0.0000   0.0000   0.0000   0.2144
  17.000   1.5354   0.05118   0.04526   0.0128  0.0463  0.0520  -8.4723   0.0000   0.0000   0.0000   0.2152
  17.500   1.4965   0.06375   0.05809   0.0073  0.0463  0.0520  -8.4224   0.0000   0.0000   0.0000   0.2174
  18.000   1.4318   0.08074   0.07537  -0.0002  0.0463  0.0520  -8.1423   0.0000   0.0000   0.0000   0.2212
  18.500   1.3545   0.10026   0.09517  -0.0088  0.0463  0.0520  -7.7213   0.0000   0.0000   0.0000   0.2265
  19.000   1.2903   0.11834   0.11347  -0.0172  0.0463  0.0520  -7.3672   0.0000   0.0000   0.0000   0.2322
  19.500   1.2466   0.13351   0.12882  -0.0246  0.0463  0.0520  -7.1549   0.0000   0.0000   0.0000   0.2376
  20.000   1.2165   0.14686   0.14232  -0.0316  0.0463  0.0520  -7.0321   0.0000   0.0000   0.0000   0.2429


