xflr5 v6.61

 Calculated polar for: NACA 0010

 1 1 Reynolds number fixed          Mach number fixed         

 xtrf =   1.000 (top)        1.000 (bottom)
 Mach =   0.120     Re =     1.600 e 6     Ncrit =   9.000

  alpha     CL        CD       CDp       Cm    Top Xtr Bot Xtr   Cpmin    Chinge    XCp    
 ------- -------- --------- --------- -------- ------- ------- -------- --------- ---------
  -5.000  -0.5675   0.00793   0.00270   0.0004  0.9935  0.0571  -2.3957   0.0000   0.0000   0.0000   0.2460
  -4.900  -0.5535   0.00785   0.00262  -0.0002  0.9931  0.0602  -2.3083   0.0000   0.0000   0.0000   0.2449
  -4.800  -0.5403   0.00773   0.00254  -0.0006  0.9923  0.0665  -2.2250   0.0000   0.0000   0.0000   0.2441
  -4.700  -0.5276   0.00763   0.00247  -0.0010  0.9911  0.0711  -2.1443   0.0000   0.0000   0.0000   0.2435
  -4.600  -0.5146   0.00754   0.00239  -0.0014  0.9900  0.0768  -2.0635   0.0000   0.0000   0.0000   0.2428
  -4.500  -0.5015   0.00742   0.00232  -0.0018  0.9889  0.0835  -1.9916   0.0000   0.0000   0.0000   0.2419
  -4.400  -0.4881   0.00733   0.00226  -0.0023  0.9877  0.0894  -1.9258   0.0000   0.0000   0.0000   0.2409
  -4.300  -0.4751   0.00721   0.00218  -0.0027  0.9863  0.0981  -1.8615   0.0000   0.0000   0.0000   0.2399
  -4.200  -0.4619   0.00712   0.00212  -0.0031  0.9849  0.1050  -1.7975   0.0000   0.0000   0.0000   0.2389
  -4.100  -0.4490   0.00699   0.00204  -0.0035  0.9834  0.1151  -1.7350   0.0000   0.0000   0.0000   0.2378
  -4.000  -0.4357   0.00688   0.00198  -0.0040  0.9820  0.1255  -1.6723   0.0000   0.0000   0.0000   0.2366
  -3.900  -0.4224   0.00676   0.00191  -0.0045  0.9806  0.1371  -1.6103   0.0000   0.0000   0.0000   0.2352
  -3.800  -0.4110   0.00663   0.00184  -0.0045  0.9781  0.1513  -1.5540   0.0000   0.0000   0.0000   0.2348
  -3.700  -0.4003   0.00653   0.00179  -0.0044  0.9747  0.1624  -1.5002   0.0000   0.0000   0.0000   0.2349
  -3.600  -0.3889   0.00642   0.00172  -0.0044  0.9715  0.1736  -1.4473   0.0000   0.0000   0.0000   0.2345
  -3.500  -0.3771   0.00632   0.00166  -0.0046  0.9683  0.1858  -1.3913   0.0000   0.0000   0.0000   0.2339
  -3.400  -0.3652   0.00623   0.00161  -0.0047  0.9652  0.1966  -1.3356   0.0000   0.0000   0.0000   0.2332
  -3.300  -0.3542   0.00612   0.00155  -0.0046  0.9617  0.2107  -1.2828   0.0000   0.0000   0.0000   0.2330
  -3.200  -0.3437   0.00603   0.00151  -0.0044  0.9573  0.2236  -1.2316   0.0000   0.0000   0.0000   0.2332
  -3.100  -0.3332   0.00592   0.00145  -0.0043  0.9524  0.2396  -1.1861   0.0000   0.0000   0.0000   0.2333
  -3.000  -0.3226   0.00581   0.00140  -0.0041  0.9475  0.2555  -1.1443   0.0000   0.0000   0.0000   0.2335
  -2.900  -0.3118   0.00574   0.00136  -0.0040  0.9429  0.2672  -1.1024   0.0000   0.0000   0.0000   0.2335
  -2.800  -0.3013   0.00564   0.00132  -0.0038  0.9376  0.2817  -1.0615   0.0000   0.0000   0.0000   0.2337
  -2.700  -0.2907   0.00559   0.00128  -0.0036  0.9316  0.2929  -1.0206   0.0000   0.0000   0.0000   0.2339
  -2.600  -0.2804   0.00549   0.00123  -0.0033  0.9252  0.3097  -0.9809   0.0000   0.0000   0.0000   0.2344
  -2.500  -0.2698   0.00541   0.00120  -0.0032  0.9194  0.3252  -0.9410   0.0000   0.0000   0.0000   0.2346
  -2.400  -0.2591   0.00534   0.00116  -0.0030  0.9128  0.3391  -0.9012   0.0000   0.0000   0.0000   0.2347
  -2.300  -0.2487   0.00527   0.00113  -0.0028  0.9053  0.3526  -0.8668   0.0000   0.0000   0.0000   0.2351
  -2.200  -0.2380   0.00522   0.00109  -0.0027  0.8983  0.3655  -0.8339   0.0000   0.0000   0.0000   0.2353
  -2.100  -0.2273   0.00514   0.00106  -0.0025  0.8908  0.3818  -0.8013   0.0000   0.0000   0.0000   0.2354
  -2.000  -0.2167   0.00510   0.00103  -0.0023  0.8823  0.3945  -0.7688   0.0000   0.0000   0.0000   0.2357
  -1.900  -0.2061   0.00504   0.00100  -0.0022  0.8744  0.4100  -0.7369   0.0000   0.0000   0.0000   0.2361
  -1.800  -0.1951   0.00500   0.00097  -0.0021  0.8660  0.4220  -0.7042   0.0000   0.0000   0.0000   0.2360
  -1.700  -0.1847   0.00494   0.00094  -0.0019  0.8562  0.4386  -0.6774   0.0000   0.0000   0.0000   0.2365
  -1.600  -0.1738   0.00492   0.00091  -0.0018  0.8477  0.4502  -0.6503   0.0000   0.0000   0.0000   0.2365
  -1.500  -0.1630   0.00485   0.00089  -0.0016  0.8384  0.4665  -0.6235   0.0000   0.0000   0.0000   0.2366
  -1.400  -0.1523   0.00484   0.00087  -0.0015  0.8273  0.4784  -0.5970   0.0000   0.0000   0.0000   0.2370
  -1.300  -0.1415   0.00479   0.00085  -0.0014  0.8182  0.4941  -0.5739   0.0000   0.0000   0.0000   0.2371
  -1.200  -0.1305   0.00477   0.00083  -0.0013  0.8075  0.5066  -0.5508   0.0000   0.0000   0.0000   0.2371
  -1.100  -0.1199   0.00474   0.00081  -0.0011  0.7965  0.5217  -0.5284   0.0000   0.0000   0.0000   0.2376
  -1.000  -0.1088   0.00471   0.00080  -0.0010  0.7863  0.5343  -0.5079   0.0000   0.0000   0.0000   0.2373
  -0.900  -0.0982   0.00469   0.00079  -0.0009  0.7740  0.5489  -0.4883   0.0000   0.0000   0.0000   0.2378
  -0.800  -0.0872   0.00467   0.00077  -0.0008  0.7640  0.5620  -0.4691   0.0000   0.0000   0.0000   0.2376
  -0.700  -0.0763   0.00465   0.00076  -0.0007  0.7520  0.5751  -0.4516   0.0000   0.0000   0.0000   0.2377
  -0.600  -0.0655   0.00464   0.00075  -0.0006  0.7396  0.5892  -0.4343   0.0000   0.0000   0.0000   0.2382
  -0.500  -0.0545   0.00463   0.00075  -0.0005  0.7287  0.6015  -0.4185   0.0000   0.0000   0.0000   0.2376
  -0.400  -0.0438   0.00462   0.00074  -0.0004  0.7154  0.6155  -0.4031   0.0000   0.0000   0.0000   0.2385
  -0.300  -0.0326   0.00462   0.00074  -0.0003  0.7045  0.6270  -0.3886   0.0000   0.0000   0.0000   0.2374
  -0.200  -0.0219   0.00460   0.00073  -0.0002  0.6912  0.6417  -0.3747   0.0000   0.0000   0.0000   0.2387
  -0.100  -0.0108   0.00461   0.00073  -0.0001  0.6794  0.6529  -0.3613   0.0000   0.0000   0.0000   0.2370
   0.000  -0.0000   0.00459   0.00073  -0.0000  0.6669  0.6669  -0.3488   0.0000   0.0000   0.0000   0.1960
   0.100   0.0108   0.00461   0.00073   0.0001  0.6529  0.6794  -0.3613   0.0000   0.0000   0.0000   0.2370
   0.200   0.0219   0.00460   0.00073   0.0002  0.6417  0.6911  -0.3747   0.0000   0.0000   0.0000   0.2387
   0.300   0.0326   0.00462   0.00074   0.0003  0.6270  0.7045  -0.3886   0.0000   0.0000   0.0000   0.2374
   0.400   0.0438   0.00462   0.00074   0.0004  0.6155  0.7154  -0.4031   0.0000   0.0000   0.0000   0.2385
   0.500   0.0545   0.00463   0.00075   0.0005  0.6014  0.7287  -0.4185   0.0000   0.0000   0.0000   0.2376
   0.600   0.0655   0.00464   0.00075   0.0006  0.5893  0.7396  -0.4343   0.0000   0.0000   0.0000   0.2382
   0.700   0.0763   0.00465   0.00076   0.0007  0.5751  0.7520  -0.4516   0.0000   0.0000   0.0000   0.2377
   0.800   0.0872   0.00467   0.00077   0.0008  0.5621  0.7639  -0.4691   0.0000   0.0000   0.0000   0.2376
   0.900   0.0982   0.00469   0.00079   0.0009  0.5489  0.7740  -0.4883   0.0000   0.0000   0.0000   0.2378
   1.000   0.1088   0.00471   0.00080   0.0010  0.5343  0.7863  -0.5079   0.0000   0.0000   0.0000   0.2373
   1.100   0.1199   0.00474   0.00081   0.0011  0.5217  0.7965  -0.5284   0.0000   0.0000   0.0000   0.2376
   1.200   0.1305   0.00477   0.00083   0.0013  0.5066  0.8075  -0.5509   0.0000   0.0000   0.0000   0.2371
   1.300   0.1415   0.00479   0.00085   0.0014  0.4942  0.8182  -0.5739   0.0000   0.0000   0.0000   0.2371
   1.400   0.1523   0.00484   0.00087   0.0015  0.4784  0.8274  -0.5970   0.0000   0.0000   0.0000   0.2370
   1.500   0.1630   0.00485   0.00089   0.0016  0.4665  0.8384  -0.6236   0.0000   0.0000   0.0000   0.2366
   1.600   0.1738   0.00492   0.00091   0.0018  0.4503  0.8477  -0.6503   0.0000   0.0000   0.0000   0.2366
   1.700   0.1847   0.00494   0.00094   0.0019  0.4386  0.8562  -0.6774   0.0000   0.0000   0.0000   0.2365
   1.800   0.1951   0.00500   0.00097   0.0021  0.4220  0.8660  -0.7042   0.0000   0.0000   0.0000   0.2360
   1.900   0.2061   0.00504   0.00100   0.0022  0.4100  0.8744  -0.7369   0.0000   0.0000   0.0000   0.2361
   2.000   0.2167   0.00510   0.00103   0.0023  0.3945  0.8823  -0.7688   0.0000   0.0000   0.0000   0.2357
   2.100   0.2273   0.00514   0.00106   0.0025  0.3819  0.8908  -0.8013   0.0000   0.0000   0.0000   0.2354
   2.200   0.2380   0.00522   0.00109   0.0026  0.3655  0.8983  -0.8339   0.0000   0.0000   0.0000   0.2353
   2.300   0.2487   0.00527   0.00113   0.0028  0.3526  0.9053  -0.8668   0.0000   0.0000   0.0000   0.2351
   2.400   0.2591   0.00534   0.00116   0.0030  0.3391  0.9128  -0.9012   0.0000   0.0000   0.0000   0.2347
   2.500   0.2698   0.00541   0.00120   0.0032  0.3252  0.9194  -0.9410   0.0000   0.0000   0.0000   0.2346
   2.600   0.2805   0.00549   0.00123   0.0033  0.3097  0.9252  -0.9810   0.0000   0.0000   0.0000   0.2344
   2.700   0.2907   0.00559   0.00128   0.0036  0.2928  0.9315  -1.0206   0.0000   0.0000   0.0000   0.2339
   2.800   0.3013   0.00564   0.00132   0.0038  0.2817  0.9376  -1.0615   0.0000   0.0000   0.0000   0.2337
   2.900   0.3118   0.00574   0.00136   0.0039  0.2671  0.9429  -1.1024   0.0000   0.0000   0.0000   0.2336
   3.000   0.3226   0.00581   0.00140   0.0041  0.2555  0.9475  -1.1443   0.0000   0.0000   0.0000   0.2335
   3.100   0.3332   0.00592   0.00145   0.0043  0.2396  0.9524  -1.1861   0.0000   0.0000   0.0000   0.2333
   3.200   0.3437   0.00603   0.00151   0.0044  0.2236  0.9573  -1.2316   0.0000   0.0000   0.0000   0.2332
   3.300   0.3542   0.00612   0.00155   0.0046  0.2107  0.9617  -1.2829   0.0000   0.0000   0.0000   0.2330
   3.400   0.3652   0.00623   0.00161   0.0047  0.1967  0.9652  -1.3356   0.0000   0.0000   0.0000   0.2332
   3.500   0.3771   0.00632   0.00166   0.0045  0.1858  0.9683  -1.3914   0.0000   0.0000   0.0000   0.2339
   3.600   0.3889   0.00642   0.00172   0.0044  0.1736  0.9715  -1.4473   0.0000   0.0000   0.0000   0.2345
   3.700   0.4003   0.00653   0.00179   0.0044  0.1624  0.9747  -1.5002   0.0000   0.0000   0.0000   0.2349
   3.800   0.4110   0.00663   0.00184   0.0045  0.1513  0.9781  -1.5540   0.0000   0.0000   0.0000   0.2348
   3.900   0.4224   0.00676   0.00191   0.0045  0.1371  0.9806  -1.6103   0.0000   0.0000   0.0000   0.2352
   4.000   0.4357   0.00688   0.00198   0.0040  0.1255  0.9820  -1.6724   0.0000   0.0000   0.0000   0.2366
   4.100   0.4490   0.00699   0.00204   0.0035  0.1151  0.9834  -1.7350   0.0000   0.0000   0.0000   0.2379
   4.200   0.4619   0.00712   0.00212   0.0031  0.1050  0.9849  -1.7975   0.0000   0.0000   0.0000   0.2389
   4.300   0.4751   0.00721   0.00218   0.0027  0.0981  0.9863  -1.8615   0.0000   0.0000   0.0000   0.2399
   4.400   0.4882   0.00733   0.00225   0.0023  0.0894  0.9877  -1.9258   0.0000   0.0000   0.0000   0.2409
   4.500   0.5015   0.00742   0.00232   0.0018  0.0835  0.9889  -1.9917   0.0000   0.0000   0.0000   0.2419
   4.600   0.5146   0.00754   0.00239   0.0014  0.0768  0.9900  -2.0635   0.0000   0.0000   0.0000   0.2428
   4.700   0.5276   0.00763   0.00247   0.0010  0.0711  0.9912  -2.1443   0.0000   0.0000   0.0000   0.2435
   4.800   0.5403   0.00773   0.00254   0.0006  0.0665  0.9923  -2.2250   0.0000   0.0000   0.0000   0.2441
   4.900   0.5535   0.00785   0.00262   0.0002  0.0602  0.9931  -2.3084   0.0000   0.0000   0.0000   0.2449
   5.000   0.5675   0.00793   0.00270  -0.0004  0.0571  0.9935  -2.3959   0.0000   0.0000   0.0000   0.2460
   5.100   0.5814   0.00804   0.00277  -0.0011  0.0533  0.9940  -2.4838   0.0000   0.0000   0.0000   0.2469
   5.200   0.5952   0.00817   0.00286  -0.0016  0.0478  0.9946  -2.5717   0.0000   0.0000   0.0000   0.2478
   5.300   0.6090   0.00825   0.00295  -0.0022  0.0454  0.9951  -2.6588   0.0000   0.0000   0.0000   0.2486
   5.400   0.6227   0.00835   0.00303  -0.0028  0.0424  0.9957  -2.7480   0.0000   0.0000   0.0000   0.2494
   5.500   0.6362   0.00847   0.00312  -0.0033  0.0388  0.9963  -2.8379   0.0000   0.0000   0.0000   0.2500
   5.600   0.6498   0.00858   0.00322  -0.0038  0.0362  0.9969  -2.9288   0.0000   0.0000   0.0000   0.2507
   5.700   0.6635   0.00865   0.00329  -0.0044  0.0352  0.9975  -3.0226   0.0000   0.0000   0.0000   0.2513
   5.800   0.6770   0.00874   0.00338  -0.0049  0.0337  0.9981  -3.1168   0.0000   0.0000   0.0000   0.2518
   5.900   0.6905   0.00885   0.00347  -0.0054  0.0318  0.9987  -3.2113   0.0000   0.0000   0.0000   0.2523
   6.000   0.7038   0.00899   0.00358  -0.0059  0.0293  0.9992  -3.3050   0.0000   0.0000   0.0000   0.2528
   6.100   0.7171   0.00913   0.00373  -0.0063  0.0269  0.9996  -3.3963   0.0000   0.0000   0.0000   0.2532
   6.200   0.7303   0.00920   0.00380  -0.0068  0.0266  1.0000  -3.4944   0.0000   0.0000   0.0000   0.2536
   6.300   0.7398   0.00927   0.00387  -0.0064  0.0262  1.0000  -3.5777   0.0000   0.0000   0.0000   0.2528
   6.400   0.7492   0.00934   0.00395  -0.0060  0.0256  1.0000  -3.6612   0.0000   0.0000   0.0000   0.2521
   6.500   0.7585   0.00943   0.00403  -0.0056  0.0249  1.0000  -3.7450   0.0000   0.0000   0.0000   0.2514
   6.600   0.7678   0.00952   0.00412  -0.0052  0.0240  1.0000  -3.8289   0.0000   0.0000   0.0000   0.2507
   6.700   0.7770   0.00963   0.00422  -0.0048  0.0231  1.0000  -3.9128   0.0000   0.0000   0.0000   0.2500
   6.800   0.7862   0.00975   0.00433  -0.0044  0.0219  1.0000  -3.9956   0.0000   0.0000   0.0000   0.2493
   6.900   0.7951   0.00992   0.00449  -0.0039  0.0202  1.0000  -4.0723   0.0000   0.0000   0.0000   0.2485
   7.000   0.8037   0.01015   0.00478  -0.0033  0.0188  1.0000  -4.1428   0.0000   0.0000   0.0000   0.2477
   7.100   0.8132   0.01023   0.00486  -0.0029  0.0187  1.0000  -4.2332   0.0000   0.0000   0.0000   0.2471
   7.200   0.8228   0.01031   0.00495  -0.0026  0.0186  1.0000  -4.3237   0.0000   0.0000   0.0000   0.2465
   7.300   0.8325   0.01039   0.00503  -0.0022  0.0185  1.0000  -4.4152   0.0000   0.0000   0.0000   0.2460
   7.400   0.8421   0.01047   0.00512  -0.0019  0.0182  1.0000  -4.5079   0.0000   0.0000   0.0000   0.2454
   7.500   0.8518   0.01056   0.00521  -0.0016  0.0180  1.0000  -4.6014   0.0000   0.0000   0.0000   0.2449
   7.600   0.8615   0.01064   0.00530  -0.0013  0.0177  1.0000  -4.6957   0.0000   0.0000   0.0000   0.2444
   7.700   0.8712   0.01074   0.00540  -0.0010  0.0173  1.0000  -4.7906   0.0000   0.0000   0.0000   0.2439
   7.800   0.8810   0.01084   0.00550  -0.0006  0.0169  1.0000  -4.8861   0.0000   0.0000   0.0000   0.2435
   7.900   0.8907   0.01094   0.00561  -0.0003  0.0165  1.0000  -4.9814   0.0000   0.0000   0.0000   0.2430
   8.000   0.9003   0.01106   0.00572   0.0000  0.0161  1.0000  -5.0829   0.0000   0.0000   0.0000   0.2425
   8.100   0.9099   0.01118   0.00585   0.0003  0.0157  1.0000  -5.1982   0.0000   0.0000   0.0000   0.2420
   8.200   0.9195   0.01131   0.00597   0.0007  0.0152  1.0000  -5.3140   0.0000   0.0000   0.0000   0.2416
   8.300   0.9290   0.01146   0.00612   0.0010  0.0147  1.0000  -5.4297   0.0000   0.0000   0.0000   0.2411
   8.400   0.9384   0.01164   0.00630   0.0014  0.0139  1.0000  -5.5421   0.0000   0.0000   0.0000   0.2406
   8.500   0.9467   0.01199   0.00670   0.0019  0.0127  1.0000  -5.6344   0.0000   0.0000   0.0000   0.2399
   8.600   0.9552   0.01230   0.00707   0.0024  0.0121  1.0000  -5.7325   0.0000   0.0000   0.0000   0.2393
   8.700   0.9653   0.01240   0.00718   0.0027  0.0120  1.0000  -5.8580   0.0000   0.0000   0.0000   0.2390
   8.800   0.9753   0.01251   0.00729   0.0029  0.0120  1.0000  -5.9841   0.0000   0.0000   0.0000   0.2387
   8.900   0.9853   0.01264   0.00744   0.0031  0.0119  1.0000  -6.1124   0.0000   0.0000   0.0000   0.2383
   9.000   0.9953   0.01276   0.00758   0.0034  0.0118  1.0000  -6.2395   0.0000   0.0000   0.0000   0.2380
   9.100   1.0052   0.01290   0.00773   0.0036  0.0117  1.0000  -6.3666   0.0000   0.0000   0.0000   0.2377
   9.200   1.0151   0.01305   0.00789   0.0038  0.0115  1.0000  -6.4936   0.0000   0.0000   0.0000   0.2373
   9.300   1.0249   0.01321   0.00807   0.0041  0.0114  1.0000  -6.6206   0.0000   0.0000   0.0000   0.2370
   9.400   1.0347   0.01338   0.00826   0.0044  0.0113  1.0000  -6.7477   0.0000   0.0000   0.0000   0.2367
   9.500   1.0444   0.01356   0.00846   0.0046  0.0111  1.0000  -6.8750   0.0000   0.0000   0.0000   0.2363
   9.600   1.0540   0.01375   0.00867   0.0049  0.0110  1.0000  -7.0027   0.0000   0.0000   0.0000   0.2360
   9.700   1.0636   0.01394   0.00889   0.0052  0.0109  1.0000  -7.1306   0.0000   0.0000   0.0000   0.2356
   9.800   1.0732   0.01414   0.00911   0.0055  0.0108  1.0000  -7.2591   0.0000   0.0000   0.0000   0.2353
   9.900   1.0827   0.01435   0.00934   0.0057  0.0106  1.0000  -7.3881   0.0000   0.0000   0.0000   0.2349
  10.000   1.0921   0.01457   0.00958   0.0060  0.0105  1.0000  -7.5177   0.0000   0.0000   0.0000   0.2346
  10.100   1.1015   0.01478   0.00982   0.0063  0.0104  1.0000  -7.6481   0.0000   0.0000   0.0000   0.2342
  10.200   1.1109   0.01501   0.01007   0.0066  0.0103  1.0000  -7.7790   0.0000   0.0000   0.0000   0.2339
  10.300   1.1202   0.01523   0.01032   0.0069  0.0102  1.0000  -7.9108   0.0000   0.0000   0.0000   0.2335
  10.400   1.1295   0.01546   0.01058   0.0072  0.0101  1.0000  -8.0432   0.0000   0.0000   0.0000   0.2332
  10.500   1.1387   0.01570   0.01084   0.0075  0.0100  1.0000  -8.1765   0.0000   0.0000   0.0000   0.2328
  10.600   1.1479   0.01593   0.01110   0.0078  0.0099  1.0000  -8.3106   0.0000   0.0000   0.0000   0.2325
  10.700   1.1571   0.01616   0.01136   0.0081  0.0098  1.0000  -8.4451   0.0000   0.0000   0.0000   0.2321
  10.800   1.1663   0.01640   0.01162   0.0084  0.0097  1.0000  -8.5809   0.0000   0.0000   0.0000   0.2318
  10.900   1.1753   0.01664   0.01189   0.0088  0.0096  1.0000  -8.7177   0.0000   0.0000   0.0000   0.2314
  11.000   1.1844   0.01688   0.01216   0.0091  0.0095  1.0000  -8.8554   0.0000   0.0000   0.0000   0.2311
  11.100   1.1933   0.01713   0.01243   0.0094  0.0094  1.0000  -8.9940   0.0000   0.0000   0.0000   0.2307
  11.200   1.2023   0.01737   0.01270   0.0097  0.0093  1.0000  -9.1334   0.0000   0.0000   0.0000   0.2304
  11.300   1.2111   0.01763   0.01297   0.0100  0.0092  1.0000  -9.2735   0.0000   0.0000   0.0000   0.2300
  11.400   1.2199   0.01788   0.01325   0.0104  0.0091  1.0000  -9.4140   0.0000   0.0000   0.0000   0.2297
  11.500   1.2287   0.01814   0.01354   0.0107  0.0090  1.0000  -9.5550   0.0000   0.0000   0.0000   0.2293
  11.600   1.2373   0.01841   0.01383   0.0110  0.0089  1.0000  -9.6961   0.0000   0.0000   0.0000   0.2289
  11.700   1.2458   0.01868   0.01412   0.0114  0.0088  1.0000  -9.8370   0.0000   0.0000   0.0000   0.2285
  11.800   1.2542   0.01896   0.01443   0.0118  0.0087  1.0000  -9.9773   0.0000   0.0000   0.0000   0.2282
  11.900   1.2624   0.01926   0.01476   0.0122  0.0086  1.0000  -10.1163   0.0000   0.0000   0.0000   0.2278
  12.000   1.2704   0.01958   0.01511   0.0126  0.0084  1.0000  -10.2529   0.0000   0.0000   0.0000   0.2273
  12.100   1.2781   0.01993   0.01549   0.0130  0.0083  1.0000  -10.3863   0.0000   0.0000   0.0000   0.2269
  12.200   1.2853   0.02032   0.01592   0.0135  0.0082  1.0000  -10.5150   0.0000   0.0000   0.0000   0.2264
  12.300   1.2920   0.02075   0.01640   0.0140  0.0080  1.0000  -10.6366   0.0000   0.0000   0.0000   0.2259
  12.400   1.2978   0.02126   0.01697   0.0147  0.0078  1.0000  -10.7474   0.0000   0.0000   0.0000   0.2253
  12.500   1.3023   0.02190   0.01768   0.0154  0.0076  1.0000  -10.8396   0.0000   0.0000   0.0000   0.2246
  12.600   1.3037   0.02282   0.01871   0.0165  0.0074  1.0000  -10.8909   0.0000   0.0000   0.0000   0.2237
  12.700   1.2861   0.02556   0.02177   0.0194  0.0069  1.0000  -10.6846   0.0000   0.0000   0.0000   0.2211
  12.800   1.2940   0.02575   0.02198   0.0198  0.0069  1.0000  -10.8372   0.0000   0.0000   0.0000   0.2208
  12.900   1.3018   0.02595   0.02219   0.0201  0.0069  1.0000  -10.9902   0.0000   0.0000   0.0000   0.2204
  13.000   1.3095   0.02615   0.02241   0.0205  0.0068  1.0000  -11.1427   0.0000   0.0000   0.0000   0.2201
  13.100   1.3169   0.02636   0.02262   0.0209  0.0068  1.0000  -11.2931   0.0000   0.0000   0.0000   0.2197
  13.200   1.3235   0.02657   0.02285   0.0215  0.0068  1.0000  -11.4377   0.0000   0.0000   0.0000   0.2191
  13.300   1.3297   0.02680   0.02310   0.0221  0.0068  1.0000  -11.5789   0.0000   0.0000   0.0000   0.2186
  13.400   1.3355   0.02704   0.02336   0.0227  0.0067  1.0000  -11.7173   0.0000   0.0000   0.0000   0.2180
  13.500   1.3411   0.02731   0.02364   0.0234  0.0067  1.0000  -11.8535   0.0000   0.0000   0.0000   0.2174
  13.600   1.3464   0.02760   0.02395   0.0240  0.0067  1.0000  -11.9872   0.0000   0.0000   0.0000   0.2168
  13.700   1.3513   0.02792   0.02429   0.0247  0.0067  1.0000  -12.1174   0.0000   0.0000   0.0000   0.2163
  13.800   1.3560   0.02827   0.02466   0.0253  0.0066  1.0000  -12.2449   0.0000   0.0000   0.0000   0.2157
  13.900   1.3603   0.02865   0.02507   0.0259  0.0066  1.0000  -12.3685   0.0000   0.0000   0.0000   0.2151
  14.000   1.3643   0.02907   0.02552   0.0265  0.0065  1.0000  -12.4877   0.0000   0.0000   0.0000   0.2145
  14.100   1.3678   0.02954   0.02601   0.0271  0.0065  1.0000  -12.6017   0.0000   0.0000   0.0000   0.2140
  14.200   1.3709   0.03005   0.02656   0.0276  0.0065  1.0000  -12.7115   0.0000   0.0000   0.0000   0.2134
  14.300   1.3736   0.03063   0.02717   0.0281  0.0064  1.0000  -12.8156   0.0000   0.0000   0.0000   0.2129
  14.400   1.3757   0.03126   0.02784   0.0286  0.0064  1.0000  -12.9124   0.0000   0.0000   0.0000   0.2124
  14.500   1.3772   0.03196   0.02858   0.0290  0.0063  1.0000  -13.0025   0.0000   0.0000   0.0000   0.2119
  14.600   1.3782   0.03275   0.02941   0.0293  0.0063  1.0000  -13.0850   0.0000   0.0000   0.0000   0.2115
  14.700   1.3787   0.03363   0.03034   0.0296  0.0062  1.0000  -13.1608   0.0000   0.0000   0.0000   0.2112
  14.800   1.3787   0.03461   0.03136   0.0297  0.0062  1.0000  -13.2293   0.0000   0.0000   0.0000   0.2109
  14.900   1.3779   0.03570   0.03250   0.0297  0.0062  1.0000  -13.2877   0.0000   0.0000   0.0000   0.2106
  15.000   1.3764   0.03692   0.03377   0.0296  0.0061  1.0000  -13.3365   0.0000   0.0000   0.0000   0.2105
  15.100   1.3743   0.03828   0.03519   0.0292  0.0061  1.0000  -13.3768   0.0000   0.0000   0.0000   0.2105
  15.200   1.3717   0.03980   0.03677   0.0287  0.0060  1.0000  -13.4081   0.0000   0.0000   0.0000   0.2106
  15.300   1.3684   0.04149   0.03852   0.0280  0.0060  1.0000  -13.4291   0.0000   0.0000   0.0000   0.2109
  15.400   1.3644   0.04338   0.04047   0.0270  0.0060  1.0000  -13.4389   0.0000   0.0000   0.0000   0.2113
  15.500   1.3595   0.04546   0.04262   0.0258  0.0060  1.0000  -13.4352   0.0000   0.0000   0.0000   0.2118
  15.600   1.3537   0.04776   0.04498   0.0245  0.0059  1.0000  -13.4174   0.0000   0.0000   0.0000   0.2125
  15.700   1.3470   0.05031   0.04759   0.0228  0.0059  1.0000  -13.3859   0.0000   0.0000   0.0000   0.2134
  15.800   1.3393   0.05312   0.05048   0.0210  0.0059  1.0000  -13.3382   0.0000   0.0000   0.0000   0.2144
  15.900   1.3304   0.05624   0.05367   0.0189  0.0059  1.0000  -13.2711   0.0000   0.0000   0.0000   0.2157
  16.000   1.3202   0.05966   0.05716   0.0165  0.0059  1.0000  -13.1833   0.0000   0.0000   0.0000   0.2171
  16.100   1.3087   0.06335   0.06091   0.0141  0.0059  1.0000  -13.0755   0.0000   0.0000   0.0000   0.2186
  16.200   1.2957   0.06727   0.06490   0.0116  0.0060  1.0000  -12.9450   0.0000   0.0000   0.0000   0.2202
  16.300   1.2805   0.07158   0.06928   0.0090  0.0060  1.0000  -12.7829   0.0000   0.0000   0.0000   0.2220
  16.400   1.2635   0.07627   0.07405   0.0061  0.0060  1.0000  -12.5902   0.0000   0.0000   0.0000   0.2239
  16.500   1.2450   0.08125   0.07910   0.0032  0.0061  1.0000  -12.3711   0.0000   0.0000   0.0000   0.2260
  16.600   1.2246   0.08655   0.08447   0.0002  0.0061  1.0000  -12.1212   0.0000   0.0000   0.0000   0.2283
  16.700   1.2011   0.09245   0.09044  -0.0030  0.0062  1.0000  -11.8182   0.0000   0.0000   0.0000   0.2309
  16.800   1.1734   0.09903   0.09710  -0.0066  0.0062  1.0000  -11.4458   0.0000   0.0000   0.0000   0.2339
  16.900   1.1428   0.10631   0.10445  -0.0105  0.0063  1.0000  -11.0146   0.0000   0.0000   0.0000   0.2374
  17.000   1.1085   0.11459   0.11281  -0.0150  0.0064  1.0000  -10.5010   0.0000   0.0000   0.0000   0.2417
  17.100   1.0507   0.12805   0.12640  -0.0223  0.0066  1.0000  -9.5549   0.0000   0.0000   0.0000   0.2496
  17.200   0.2818   0.05168   0.05059   0.0126  0.0085  1.0000  -1.5960   0.0000   0.0000   0.0000   0.2085
  17.300   0.2850   0.05257   0.05148   0.0120  0.0083  1.0000  -1.6164   0.0000   0.0000   0.0000   0.2107
  17.400   0.2883   0.05344   0.05235   0.0115  0.0081  1.0000  -1.6391   0.0000   0.0000   0.0000   0.2128
  17.500   0.2916   0.05431   0.05323   0.0109  0.0080  1.0000  -1.6625   0.0000   0.0000   0.0000   0.2148
  17.600   0.2949   0.05521   0.05412   0.0104  0.0078  1.0000  -1.6850   0.0000   0.0000   0.0000   0.2169
  17.700   0.2980   0.05616   0.05507   0.0098  0.0077  1.0000  -1.7032   0.0000   0.0000   0.0000   0.2189
  17.800   0.3010   0.05726   0.05617   0.0092  0.0075  1.0000  -1.7077   0.0000   0.0000   0.0000   0.2212
  17.900   0.3028   0.05922   0.05813   0.0082  0.0073  1.0000  -1.6352   0.0000   0.0000   0.0000   0.2247


