xflr5 v6.61

 Calculated polar for: NACA 0012

 1 1 Reynolds number fixed          Mach number fixed         

 xtrf =   1.000 (top)        1.000 (bottom)
 Mach =   0.000     Re =     2.000 e 6     Ncrit =   0.000

  alpha     CL        CD       CDp       Cm    Top Xtr Bot Xtr   Cpmin    Chinge    XCp    
 ------- -------- --------- --------- -------- ------- ------- -------- --------- ---------
  -2.000  -0.2250   0.01003   0.00185   0.0000  0.0031  0.0008  -0.7666   0.0000   0.0000   0.0000   0.2454
  -1.500  -0.1689   0.00994   0.00175   0.0000  0.0008  0.0000  -0.6507   0.0000   0.0000   0.0000   0.2456
  -1.000  -0.1126   0.00989   0.00169   0.0000  0.0008  0.0000  -0.5546   0.0000   0.0000   0.0000   0.2457
  -0.500  -0.0563   0.00985   0.00165   0.0000  0.0008  0.0000  -0.4764   0.0000   0.0000   0.0000   0.2458
   0.500   0.0563   0.00985   0.00165  -0.0000  0.0000  0.0008  -0.4764   0.0000   0.0000   0.0000   0.2458
   1.000   0.1126   0.00989   0.00169  -0.0000  0.0000  0.0008  -0.5546   0.0000   0.0000   0.0000   0.2457
   1.500   0.1689   0.00994   0.00175  -0.0000  0.0000  0.0008  -0.6507   0.0000   0.0000   0.0000   0.2456
   2.000   0.2250   0.01003   0.00185  -0.0000  0.0008  0.0031  -0.7666   0.0000   0.0000   0.0000   0.2454
   2.500   0.2811   0.01013   0.00196   0.0000  0.0008  0.0031  -0.9060   0.0000   0.0000   0.0000   0.2451
   3.000   0.3370   0.01025   0.00210   0.0001  0.0008  0.0031  -1.0682   0.0000   0.0000   0.0000   0.2448
   3.500   0.3928   0.01041   0.00228   0.0001  0.0008  0.0031  -1.2469   0.0000   0.0000   0.0000   0.2445
   4.000   0.4483   0.01059   0.00249   0.0002  0.0031  0.0069  -1.4623   0.0000   0.0000   0.0000   0.2441
   4.500   0.5036   0.01079   0.00272   0.0003  0.0031  0.0069  -1.6828   0.0000   0.0000   0.0000   0.2436
   5.000   0.5587   0.01103   0.00298   0.0005  0.0031  0.0069  -1.9413   0.0000   0.0000   0.0000   0.2431
   5.500   0.6134   0.01130   0.00330   0.0007  0.0069  0.0121  -2.2248   0.0000   0.0000   0.0000   0.2425
   6.000   0.6678   0.01160   0.00363   0.0009  0.0069  0.0121  -2.5195   0.0000   0.0000   0.0000   0.2418
   6.500   0.7218   0.01193   0.00400   0.0012  0.0069  0.0121  -2.8241   0.0000   0.0000   0.0000   0.2411
   7.000   0.7753   0.01230   0.00441   0.0015  0.0069  0.0121  -3.1533   0.0000   0.0000   0.0000   0.2404
   7.500   0.8284   0.01270   0.00489   0.0019  0.0121  0.0188  -3.5431   0.0000   0.0000   0.0000   0.2395
   8.000   0.8808   0.01315   0.00539   0.0024  0.0121  0.0188  -3.9416   0.0000   0.0000   0.0000   0.2386
   8.500   0.9327   0.01364   0.00594   0.0029  0.0121  0.0188  -4.3539   0.0000   0.0000   0.0000   0.2377
   9.000   0.9838   0.01418   0.00655   0.0036  0.0188  0.0269  -4.7795   0.0000   0.0000   0.0000   0.2366
   9.500   1.0342   0.01477   0.00721   0.0043  0.0188  0.0269  -5.2171   0.0000   0.0000   0.0000   0.2355
  10.000   1.0835   0.01541   0.00793   0.0051  0.0188  0.0269  -5.6658   0.0000   0.0000   0.0000   0.2343
  10.500   1.1318   0.01611   0.00871   0.0061  0.0188  0.0269  -6.1208   0.0000   0.0000   0.0000   0.2330
  11.000   1.1788   0.01688   0.00958   0.0072  0.0269  0.0364  -6.5883   0.0000   0.0000   0.0000   0.2316
  11.500   1.2244   0.01772   0.01051   0.0085  0.0269  0.0364  -7.0582   0.0000   0.0000   0.0000   0.2300
  12.000   1.2682   0.01863   0.01152   0.0099  0.0269  0.0364  -7.5321   0.0000   0.0000   0.0000   0.2284
  12.500   1.3098   0.01963   0.01262   0.0116  0.0269  0.0364  -8.0125   0.0000   0.0000   0.0000   0.2265
  13.000   1.3486   0.02073   0.01385   0.0137  0.0364  0.0472  -8.5552   0.0000   0.0000   0.0000   0.2245
  13.500   1.3838   0.02195   0.01519   0.0161  0.0364  0.0472  -9.0855   0.0000   0.0000   0.0000   0.2222
  14.000   1.4086   0.02326   0.01663   0.0202  0.0364  0.0472  -9.5636   0.0000   0.0000   0.0000   0.2186
  14.500   1.4314   0.02493   0.01843   0.0238  0.0364  0.0472  -10.0366   0.0000   0.0000   0.0000   0.2155
  15.000   1.4498   0.02701   0.02066   0.0271  0.0472  0.0592  -10.4822   0.0000   0.0000   0.0000   0.2125
  15.500   1.4632   0.02967   0.02348   0.0297  0.0472  0.0592  -10.8942   0.0000   0.0000   0.0000   0.2098
  16.000   1.4716   0.03317   0.02714   0.0314  0.0472  0.0592  -11.2664   0.0000   0.0000   0.0000   0.2078
  16.500   1.4741   0.03788   0.03204   0.0316  0.0472  0.0592  -11.5838   0.0000   0.0000   0.0000   0.2066
  17.000   1.4683   0.04422   0.03858   0.0300  0.0472  0.0592  -11.8192   0.0000   0.0000   0.0000   0.2064
  17.500   1.4516   0.05295   0.04753   0.0262  0.0472  0.0592  -11.9360   0.0000   0.0000   0.0000   0.2075
  18.000   1.4176   0.06485   0.05969   0.0203  0.0472  0.0592  -11.8617   0.0000   0.0000   0.0000   0.2099
  18.500   1.3589   0.08166   0.07678   0.0114  0.0472  0.0592  -11.4952   0.0000   0.0000   0.0000   0.2145
  19.000   1.2661   0.10515   0.10059  -0.0008  0.0472  0.0592  -10.6899   0.0000   0.0000   0.0000   0.2224
  19.500   1.1301   0.13872   0.13454  -0.0185  0.0472  0.0592  -9.2064   0.0000   0.0000   0.0000   0.2375
  20.000   1.0062   0.17452   0.17066  -0.0380  0.0364  0.0472  -7.5070   0.0000   0.0000   0.0000   0.2591


