xflr5 v6.61

 Calculated polar for: NACA 0012

 1 1 Reynolds number fixed          Mach number fixed         

 xtrf =   1.000 (top)        1.000 (bottom)
 Mach =   0.120     Re =     1.600 e 6     Ncrit =   9.000

  alpha     CL        CD       CDp       Cm    Top Xtr Bot Xtr   Cpmin    Chinge    XCp    
 ------- -------- --------- --------- -------- ------- ------- -------- --------- ---------
  -5.000  -0.5448   0.00762   0.00259  -0.0053  0.9716  0.1175  -1.9234   0.0000   0.0000   0.0000   0.2340
  -4.900  -0.5331   0.00753   0.00252  -0.0054  0.9689  0.1234  -1.8662   0.0000   0.0000   0.0000   0.2337
  -4.800  -0.5216   0.00741   0.00245  -0.0055  0.9663  0.1311  -1.8100   0.0000   0.0000   0.0000   0.2334
  -4.700  -0.5098   0.00734   0.00239  -0.0055  0.9638  0.1366  -1.7613   0.0000   0.0000   0.0000   0.2331
  -4.600  -0.4996   0.00724   0.00233  -0.0053  0.9603  0.1444  -1.7170   0.0000   0.0000   0.0000   0.2334
  -4.500  -0.4892   0.00714   0.00226  -0.0051  0.9563  0.1520  -1.6727   0.0000   0.0000   0.0000   0.2337
  -4.400  -0.4785   0.00707   0.00221  -0.0049  0.9522  0.1590  -1.6280   0.0000   0.0000   0.0000   0.2339
  -4.300  -0.4681   0.00694   0.00213  -0.0047  0.9482  0.1701  -1.5845   0.0000   0.0000   0.0000   0.2341
  -4.200  -0.4573   0.00687   0.00208  -0.0046  0.9444  0.1777  -1.5403   0.0000   0.0000   0.0000   0.2343
  -4.100  -0.4470   0.00676   0.00202  -0.0044  0.9403  0.1890  -1.4975   0.0000   0.0000   0.0000   0.2345
  -4.000  -0.4363   0.00669   0.00197  -0.0042  0.9355  0.1963  -1.4543   0.0000   0.0000   0.0000   0.2347
  -3.900  -0.4258   0.00660   0.00191  -0.0040  0.9303  0.2057  -1.4119   0.0000   0.0000   0.0000   0.2350
  -3.800  -0.4154   0.00653   0.00185  -0.0038  0.9252  0.2145  -1.3697   0.0000   0.0000   0.0000   0.2354
  -3.700  -0.4044   0.00647   0.00181  -0.0037  0.9207  0.2216  -1.3267   0.0000   0.0000   0.0000   0.2355
  -3.600  -0.3939   0.00637   0.00174  -0.0035  0.9154  0.2332  -1.2845   0.0000   0.0000   0.0000   0.2357
  -3.500  -0.3831   0.00631   0.00170  -0.0034  0.9093  0.2419  -1.2441   0.0000   0.0000   0.0000   0.2359
  -3.400  -0.3729   0.00621   0.00164  -0.0031  0.9030  0.2552  -1.2096   0.0000   0.0000   0.0000   0.2363
  -3.300  -0.3620   0.00616   0.00160  -0.0030  0.8977  0.2645  -1.1744   0.0000   0.0000   0.0000   0.2364
  -3.200  -0.3512   0.00607   0.00156  -0.0029  0.8917  0.2756  -1.1396   0.0000   0.0000   0.0000   0.2366
  -3.100  -0.3405   0.00602   0.00151  -0.0027  0.8848  0.2849  -1.1052   0.0000   0.0000   0.0000   0.2368
  -3.000  -0.3297   0.00599   0.00147  -0.0026  0.8775  0.2923  -1.0709   0.0000   0.0000   0.0000   0.2371
  -2.900  -0.3189   0.00590   0.00143  -0.0025  0.8715  0.3055  -1.0370   0.0000   0.0000   0.0000   0.2372
  -2.800  -0.3079   0.00585   0.00140  -0.0024  0.8644  0.3149  -1.0029   0.0000   0.0000   0.0000   0.2373
  -2.700  -0.2974   0.00579   0.00136  -0.0022  0.8564  0.3279  -0.9699   0.0000   0.0000   0.0000   0.2377
  -2.600  -0.2865   0.00575   0.00132  -0.0021  0.8492  0.3375  -0.9404   0.0000   0.0000   0.0000   0.2378
  -2.500  -0.2754   0.00571   0.00130  -0.0020  0.8419  0.3460  -0.9113   0.0000   0.0000   0.0000   0.2378
  -2.400  -0.2647   0.00565   0.00126  -0.0019  0.8333  0.3584  -0.8830   0.0000   0.0000   0.0000   0.2381
  -2.300  -0.2538   0.00563   0.00123  -0.0017  0.8246  0.3673  -0.8547   0.0000   0.0000   0.0000   0.2384
  -2.200  -0.2428   0.00556   0.00120  -0.0016  0.8177  0.3803  -0.8265   0.0000   0.0000   0.0000   0.2384
  -2.100  -0.2318   0.00553   0.00118  -0.0016  0.8089  0.3900  -0.7994   0.0000   0.0000   0.0000   0.2385
  -2.000  -0.2210   0.00552   0.00115  -0.0014  0.7990  0.3988  -0.7751   0.0000   0.0000   0.0000   0.2388
  -1.900  -0.2100   0.00546   0.00113  -0.0013  0.7916  0.4116  -0.7508   0.0000   0.0000   0.0000   0.2388
  -1.800  -0.1989   0.00544   0.00110  -0.0013  0.7827  0.4208  -0.7265   0.0000   0.0000   0.0000   0.2388
  -1.700  -0.1881   0.00541   0.00107  -0.0011  0.7725  0.4319  -0.7028   0.0000   0.0000   0.0000   0.2392
  -1.600  -0.1771   0.00537   0.00105  -0.0011  0.7645  0.4429  -0.6812   0.0000   0.0000   0.0000   0.2392
  -1.400  -0.1552   0.00533   0.00102  -0.0009  0.7445  0.4640  -0.6394   0.0000   0.0000   0.0000   0.2396
  -1.300  -0.1440   0.00531   0.00100  -0.0008  0.7364  0.4740  -0.6188   0.0000   0.0000   0.0000   0.2395
  -1.200  -0.1328   0.00530   0.00099  -0.0008  0.7269  0.4832  -0.6002   0.0000   0.0000   0.0000   0.2394
  -1.100  -0.1221   0.00528   0.00097  -0.0007  0.7158  0.4954  -0.5820   0.0000   0.0000   0.0000   0.2399
  -1.000  -0.1108   0.00526   0.00096  -0.0006  0.7073  0.5047  -0.5635   0.0000   0.0000   0.0000   0.2397
  -0.900  -0.0997   0.00524   0.00095  -0.0006  0.6977  0.5150  -0.5469   0.0000   0.0000   0.0000   0.2396
  -0.800  -0.0889   0.00523   0.00094  -0.0005  0.6865  0.5264  -0.5308   0.0000   0.0000   0.0000   0.2402
  -0.700  -0.0776   0.00523   0.00093  -0.0004  0.6779  0.5352  -0.5142   0.0000   0.0000   0.0000   0.2398
  -0.600  -0.0665   0.00521   0.00093  -0.0004  0.6679  0.5461  -0.4994   0.0000   0.0000   0.0000   0.2398
  -0.500  -0.0556   0.00521   0.00092  -0.0003  0.6565  0.5572  -0.4849   0.0000   0.0000   0.0000   0.2406
  -0.400  -0.0443   0.00521   0.00092  -0.0003  0.6482  0.5654  -0.4700   0.0000   0.0000   0.0000   0.2396
  -0.300  -0.0333   0.00519   0.00091  -0.0002  0.6381  0.5772  -0.4567   0.0000   0.0000   0.0000   0.2399
  -0.200  -0.0224   0.00520   0.00091  -0.0001  0.6260  0.5876  -0.4436   0.0000   0.0000   0.0000   0.2414
   0.000   0.0000   0.00518   0.00091   0.0000  0.6078  0.6078  -0.4181   0.0000   0.0000   0.0000   0.1266
   0.100   0.0109   0.00520   0.00091   0.0001  0.5957  0.6180  -0.4302   0.0000   0.0000   0.0000   0.2377
   0.300   0.0333   0.00519   0.00091   0.0002  0.5772  0.6381  -0.4567   0.0000   0.0000   0.0000   0.2399
   0.400   0.0443   0.00521   0.00092   0.0003  0.5655  0.6482  -0.4700   0.0000   0.0000   0.0000   0.2396
   0.500   0.0556   0.00521   0.00092   0.0003  0.5572  0.6565  -0.4849   0.0000   0.0000   0.0000   0.2406
   0.600   0.0665   0.00521   0.00093   0.0004  0.5461  0.6679  -0.4994   0.0000   0.0000   0.0000   0.2398
   0.700   0.0776   0.00523   0.00093   0.0004  0.5352  0.6779  -0.5142   0.0000   0.0000   0.0000   0.2398
   0.800   0.0889   0.00523   0.00094   0.0005  0.5264  0.6865  -0.5308   0.0000   0.0000   0.0000   0.2402
   0.900   0.0997   0.00524   0.00095   0.0006  0.5150  0.6977  -0.5469   0.0000   0.0000   0.0000   0.2396
   1.000   0.1108   0.00526   0.00096   0.0006  0.5047  0.7072  -0.5635   0.0000   0.0000   0.0000   0.2397
   1.100   0.1221   0.00528   0.00097   0.0007  0.4954  0.7157  -0.5820   0.0000   0.0000   0.0000   0.2399
   1.200   0.1328   0.00530   0.00099   0.0008  0.4833  0.7269  -0.6002   0.0000   0.0000   0.0000   0.2394
   1.300   0.1440   0.00531   0.00100   0.0008  0.4740  0.7363  -0.6188   0.0000   0.0000   0.0000   0.2395
   1.400   0.1552   0.00533   0.00102   0.0009  0.4640  0.7445  -0.6394   0.0000   0.0000   0.0000   0.2396
   1.500   0.1658   0.00536   0.00104   0.0010  0.4512  0.7550  -0.6599   0.0000   0.0000   0.0000   0.2391
   1.600   0.1771   0.00537   0.00105   0.0011  0.4429  0.7645  -0.6812   0.0000   0.0000   0.0000   0.2392
   1.700   0.1881   0.00541   0.00107   0.0011  0.4319  0.7725  -0.7028   0.0000   0.0000   0.0000   0.2392
   1.800   0.1989   0.00544   0.00110   0.0013  0.4208  0.7827  -0.7265   0.0000   0.0000   0.0000   0.2388
   1.900   0.2100   0.00546   0.00113   0.0013  0.4116  0.7916  -0.7509   0.0000   0.0000   0.0000   0.2388
   2.000   0.2210   0.00552   0.00115   0.0014  0.3988  0.7990  -0.7751   0.0000   0.0000   0.0000   0.2388
   2.100   0.2318   0.00553   0.00118   0.0016  0.3900  0.8089  -0.7994   0.0000   0.0000   0.0000   0.2385
   2.200   0.2428   0.00556   0.00120   0.0016  0.3803  0.8177  -0.8265   0.0000   0.0000   0.0000   0.2384
   2.300   0.2538   0.00563   0.00123   0.0017  0.3673  0.8246  -0.8547   0.0000   0.0000   0.0000   0.2384
   2.400   0.2647   0.00565   0.00126   0.0019  0.3583  0.8333  -0.8830   0.0000   0.0000   0.0000   0.2381
   2.500   0.2754   0.00571   0.00130   0.0020  0.3461  0.8419  -0.9113   0.0000   0.0000   0.0000   0.2378
   2.600   0.2865   0.00575   0.00132   0.0021  0.3375  0.8492  -0.9404   0.0000   0.0000   0.0000   0.2379
   2.700   0.2974   0.00579   0.00136   0.0022  0.3279  0.8564  -0.9699   0.0000   0.0000   0.0000   0.2377
   2.800   0.3079   0.00585   0.00140   0.0024  0.3149  0.8644  -1.0030   0.0000   0.0000   0.0000   0.2373
   2.900   0.3190   0.00590   0.00143   0.0024  0.3055  0.8715  -1.0371   0.0000   0.0000   0.0000   0.2372
   3.000   0.3297   0.00599   0.00147   0.0026  0.2923  0.8775  -1.0710   0.0000   0.0000   0.0000   0.2371
   3.100   0.3405   0.00602   0.00151   0.0027  0.2849  0.8848  -1.1052   0.0000   0.0000   0.0000   0.2368
   3.200   0.3512   0.00607   0.00156   0.0029  0.2756  0.8917  -1.1397   0.0000   0.0000   0.0000   0.2366
   3.300   0.3620   0.00616   0.00160   0.0030  0.2645  0.8977  -1.1744   0.0000   0.0000   0.0000   0.2365
   3.400   0.3729   0.00621   0.00164   0.0031  0.2552  0.9030  -1.2097   0.0000   0.0000   0.0000   0.2364
   3.500   0.3832   0.00631   0.00170   0.0034  0.2419  0.9093  -1.2441   0.0000   0.0000   0.0000   0.2359
   3.600   0.3939   0.00637   0.00174   0.0035  0.2331  0.9154  -1.2845   0.0000   0.0000   0.0000   0.2357
   3.700   0.4045   0.00647   0.00181   0.0037  0.2216  0.9207  -1.3268   0.0000   0.0000   0.0000   0.2355
   3.800   0.4154   0.00653   0.00185   0.0038  0.2145  0.9252  -1.3697   0.0000   0.0000   0.0000   0.2354
   3.900   0.4258   0.00660   0.00191   0.0040  0.2057  0.9303  -1.4119   0.0000   0.0000   0.0000   0.2350
   4.000   0.4363   0.00669   0.00197   0.0042  0.1963  0.9355  -1.4543   0.0000   0.0000   0.0000   0.2347
   4.100   0.4470   0.00676   0.00202   0.0044  0.1891  0.9403  -1.4976   0.0000   0.0000   0.0000   0.2345
   4.200   0.4574   0.00687   0.00208   0.0046  0.1777  0.9444  -1.5404   0.0000   0.0000   0.0000   0.2343
   4.300   0.4681   0.00694   0.00213   0.0047  0.1701  0.9482  -1.5845   0.0000   0.0000   0.0000   0.2341
   4.400   0.4785   0.00707   0.00221   0.0049  0.1590  0.9522  -1.6281   0.0000   0.0000   0.0000   0.2339
   4.500   0.4893   0.00714   0.00226   0.0051  0.1520  0.9563  -1.6728   0.0000   0.0000   0.0000   0.2337
   4.600   0.4996   0.00724   0.00233   0.0053  0.1444  0.9603  -1.7171   0.0000   0.0000   0.0000   0.2334
   4.700   0.5099   0.00734   0.00239   0.0055  0.1366  0.9638  -1.7614   0.0000   0.0000   0.0000   0.2331
   4.800   0.5216   0.00741   0.00245   0.0055  0.1311  0.9663  -1.8100   0.0000   0.0000   0.0000   0.2335
   4.900   0.5332   0.00753   0.00252   0.0054  0.1234  0.9689  -1.8662   0.0000   0.0000   0.0000   0.2337
   5.000   0.5449   0.00762   0.00259   0.0053  0.1175  0.9716  -1.9235   0.0000   0.0000   0.0000   0.2340
   5.100   0.5560   0.00770   0.00265   0.0054  0.1123  0.9745  -1.9800   0.0000   0.0000   0.0000   0.2341
   5.200   0.5665   0.00783   0.00273   0.0056  0.1052  0.9775  -2.0351   0.0000   0.0000   0.0000   0.2339
   5.300   0.5772   0.00791   0.00280   0.0057  0.1004  0.9801  -2.0913   0.0000   0.0000   0.0000   0.2337
   5.400   0.5904   0.00802   0.00287   0.0053  0.0945  0.9813  -2.1546   0.0000   0.0000   0.0000   0.2346
   5.500   0.6035   0.00815   0.00298   0.0048  0.0873  0.9826  -2.2195   0.0000   0.0000   0.0000   0.2355
   5.600   0.6167   0.00823   0.00305   0.0044  0.0838  0.9838  -2.2846   0.0000   0.0000   0.0000   0.2363
   5.700   0.6297   0.00835   0.00313   0.0040  0.0791  0.9850  -2.3492   0.0000   0.0000   0.0000   0.2370
   5.800   0.6427   0.00847   0.00322   0.0036  0.0735  0.9861  -2.4142   0.0000   0.0000   0.0000   0.2377
   5.900   0.6561   0.00856   0.00330   0.0031  0.0709  0.9872  -2.4811   0.0000   0.0000   0.0000   0.2384
   6.000   0.6695   0.00866   0.00338   0.0027  0.0679  0.9882  -2.5487   0.0000   0.0000   0.0000   0.2392
   6.100   0.6827   0.00878   0.00347   0.0022  0.0642  0.9891  -2.6159   0.0000   0.0000   0.0000   0.2398
   6.200   0.6956   0.00890   0.00357   0.0018  0.0596  0.9901  -2.6828   0.0000   0.0000   0.0000   0.2403
   6.300   0.7086   0.00898   0.00365   0.0015  0.0581  0.9911  -2.7511   0.0000   0.0000   0.0000   0.2408
   6.400   0.7212   0.00907   0.00373   0.0012  0.0561  0.9922  -2.8188   0.0000   0.0000   0.0000   0.2412
   6.500   0.7340   0.00919   0.00382   0.0008  0.0535  0.9929  -2.8875   0.0000   0.0000   0.0000   0.2416
   6.600   0.7477   0.00932   0.00392   0.0002  0.0502  0.9933  -2.9589   0.0000   0.0000   0.0000   0.2423
   6.700   0.7614   0.00944   0.00403  -0.0003  0.0471  0.9937  -3.0305   0.0000   0.0000   0.0000   0.2430
   6.800   0.7754   0.00952   0.00411  -0.0009  0.0463  0.9942  -3.1047   0.0000   0.0000   0.0000   0.2437
   6.900   0.7892   0.00961   0.00420  -0.0015  0.0450  0.9946  -3.1867   0.0000   0.0000   0.0000   0.2443
   7.000   0.8028   0.00972   0.00429  -0.0020  0.0432  0.9951  -3.2739   0.0000   0.0000   0.0000   0.2448
   7.100   0.8162   0.00985   0.00441  -0.0025  0.0412  0.9957  -3.3632   0.0000   0.0000   0.0000   0.2453
   7.200   0.8295   0.00999   0.00454  -0.0030  0.0384  0.9962  -3.4507   0.0000   0.0000   0.0000   0.2457
   7.300   0.8429   0.01013   0.00467  -0.0035  0.0363  0.9968  -3.5385   0.0000   0.0000   0.0000   0.2462
   7.400   0.8564   0.01020   0.00475  -0.0040  0.0359  0.9973  -3.6303   0.0000   0.0000   0.0000   0.2466
   7.500   0.8699   0.01029   0.00483  -0.0045  0.0352  0.9978  -3.7222   0.0000   0.0000   0.0000   0.2470
   7.600   0.8833   0.01039   0.00493  -0.0050  0.0342  0.9983  -3.8142   0.0000   0.0000   0.0000   0.2474
   7.700   0.8965   0.01051   0.00504  -0.0055  0.0332  0.9988  -3.9065   0.0000   0.0000   0.0000   0.2477
   7.800   0.9097   0.01064   0.00515  -0.0059  0.0319  0.9993  -3.9988   0.0000   0.0000   0.0000   0.2480
   7.900   0.9227   0.01078   0.00528  -0.0063  0.0305  0.9997  -4.0912   0.0000   0.0000   0.0000   0.2483
   8.000   0.9348   0.01094   0.00543  -0.0065  0.0287  1.0000  -4.1785   0.0000   0.0000   0.0000   0.2483
   8.100   0.9425   0.01112   0.00562  -0.0059  0.0271  1.0000  -4.2479   0.0000   0.0000   0.0000   0.2474
   8.200   0.9511   0.01120   0.00572  -0.0053  0.0268  1.0000  -4.3256   0.0000   0.0000   0.0000   0.2467
   8.300   0.9598   0.01128   0.00580  -0.0048  0.0267  1.0000  -4.4053   0.0000   0.0000   0.0000   0.2460
   8.400   0.9686   0.01136   0.00588  -0.0043  0.0265  1.0000  -4.4853   0.0000   0.0000   0.0000   0.2453
   8.500   0.9773   0.01144   0.00597  -0.0038  0.0263  1.0000  -4.5659   0.0000   0.0000   0.0000   0.2446
   8.600   0.9860   0.01153   0.00607  -0.0032  0.0260  1.0000  -4.6468   0.0000   0.0000   0.0000   0.2439
   8.700   0.9947   0.01163   0.00617  -0.0027  0.0256  1.0000  -4.7281   0.0000   0.0000   0.0000   0.2432
   8.800   1.0034   0.01173   0.00629  -0.0022  0.0252  1.0000  -4.8089   0.0000   0.0000   0.0000   0.2426
   8.900   1.0120   0.01184   0.00640  -0.0017  0.0248  1.0000  -4.8901   0.0000   0.0000   0.0000   0.2419
   9.000   1.0207   0.01195   0.00651  -0.0012  0.0243  1.0000  -4.9722   0.0000   0.0000   0.0000   0.2413
   9.100   1.0293   0.01207   0.00663  -0.0006  0.0237  1.0000  -5.0548   0.0000   0.0000   0.0000   0.2406
   9.200   1.0379   0.01220   0.00675  -0.0001  0.0232  1.0000  -5.1377   0.0000   0.0000   0.0000   0.2400
   9.300   1.0464   0.01234   0.00689   0.0004  0.0225  1.0000  -5.2205   0.0000   0.0000   0.0000   0.2394
   9.400   1.0549   0.01249   0.00703   0.0009  0.0218  1.0000  -5.3026   0.0000   0.0000   0.0000   0.2388
   9.500   1.0632   0.01267   0.00722   0.0015  0.0208  1.0000  -5.3816   0.0000   0.0000   0.0000   0.2381
   9.600   1.0709   0.01291   0.00749   0.0022  0.0197  1.0000  -5.4537   0.0000   0.0000   0.0000   0.2374
   9.700   1.0779   0.01321   0.00783   0.0030  0.0188  1.0000  -5.5197   0.0000   0.0000   0.0000   0.2365
   9.800   1.0871   0.01332   0.00794   0.0034  0.0188  1.0000  -5.6092   0.0000   0.0000   0.0000   0.2360
   9.900   1.0963   0.01343   0.00806   0.0038  0.0187  1.0000  -5.6994   0.0000   0.0000   0.0000   0.2356
  10.000   1.1055   0.01354   0.00818   0.0042  0.0186  1.0000  -5.7903   0.0000   0.0000   0.0000   0.2351
  10.100   1.1147   0.01366   0.00831   0.0045  0.0185  1.0000  -5.8816   0.0000   0.0000   0.0000   0.2347
  10.200   1.1240   0.01378   0.00844   0.0049  0.0184  1.0000  -5.9735   0.0000   0.0000   0.0000   0.2343
  10.300   1.1333   0.01391   0.00858   0.0052  0.0183  1.0000  -6.0657   0.0000   0.0000   0.0000   0.2338
  10.400   1.1426   0.01404   0.00872   0.0056  0.0182  1.0000  -6.1583   0.0000   0.0000   0.0000   0.2334
  10.500   1.1519   0.01418   0.00887   0.0060  0.0180  1.0000  -6.2511   0.0000   0.0000   0.0000   0.2330
  10.600   1.1611   0.01433   0.00903   0.0063  0.0179  1.0000  -6.3443   0.0000   0.0000   0.0000   0.2326
  10.700   1.1704   0.01448   0.00919   0.0066  0.0177  1.0000  -6.4378   0.0000   0.0000   0.0000   0.2322
  10.800   1.1796   0.01463   0.00937   0.0070  0.0175  1.0000  -6.5326   0.0000   0.0000   0.0000   0.2319
  10.900   1.1888   0.01479   0.00954   0.0073  0.0173  1.0000  -6.6274   0.0000   0.0000   0.0000   0.2315
  11.000   1.1980   0.01494   0.00971   0.0077  0.0171  1.0000  -6.7233   0.0000   0.0000   0.0000   0.2311
  11.100   1.2073   0.01510   0.00987   0.0080  0.0169  1.0000  -6.8203   0.0000   0.0000   0.0000   0.2307
  11.200   1.2165   0.01525   0.01003   0.0083  0.0167  1.0000  -6.9180   0.0000   0.0000   0.0000   0.2304
  11.300   1.2257   0.01541   0.01020   0.0086  0.0164  1.0000  -7.0161   0.0000   0.0000   0.0000   0.2300
  11.400   1.2349   0.01558   0.01037   0.0090  0.0161  1.0000  -7.1146   0.0000   0.0000   0.0000   0.2297
  11.500   1.2439   0.01575   0.01054   0.0093  0.0159  1.0000  -7.2132   0.0000   0.0000   0.0000   0.2293
  11.600   1.2529   0.01592   0.01072   0.0096  0.0156  1.0000  -7.3117   0.0000   0.0000   0.0000   0.2289
  11.700   1.2618   0.01611   0.01091   0.0100  0.0153  1.0000  -7.4097   0.0000   0.0000   0.0000   0.2285
  11.800   1.2706   0.01630   0.01112   0.0104  0.0151  1.0000  -7.5066   0.0000   0.0000   0.0000   0.2281
  11.900   1.2792   0.01651   0.01133   0.0108  0.0148  1.0000  -7.6021   0.0000   0.0000   0.0000   0.2277
  12.000   1.2876   0.01673   0.01157   0.0112  0.0145  1.0000  -7.6956   0.0000   0.0000   0.0000   0.2273
  12.100   1.2956   0.01698   0.01184   0.0116  0.0141  1.0000  -7.7873   0.0000   0.0000   0.0000   0.2269
  12.200   1.3033   0.01727   0.01215   0.0122  0.0137  1.0000  -7.8910   0.0000   0.0000   0.0000   0.2264
  12.300   1.3101   0.01762   0.01253   0.0128  0.0133  1.0000  -7.9878   0.0000   0.0000   0.0000   0.2258
  12.400   1.3154   0.01809   0.01306   0.0136  0.0127  1.0000  -8.0696   0.0000   0.0000   0.0000   0.2250
  12.500   1.3173   0.01882   0.01390   0.0149  0.0121  1.0000  -8.1221   0.0000   0.0000   0.0000   0.2240
  12.600   1.3259   0.01899   0.01408   0.0152  0.0121  1.0000  -8.2396   0.0000   0.0000   0.0000   0.2236
  12.700   1.3343   0.01917   0.01428   0.0156  0.0121  1.0000  -8.3573   0.0000   0.0000   0.0000   0.2232
  12.800   1.3427   0.01936   0.01448   0.0160  0.0121  1.0000  -8.4749   0.0000   0.0000   0.0000   0.2228
  12.900   1.3509   0.01954   0.01468   0.0164  0.0120  1.0000  -8.5921   0.0000   0.0000   0.0000   0.2224
  13.000   1.3589   0.01974   0.01489   0.0168  0.0120  1.0000  -8.7088   0.0000   0.0000   0.0000   0.2220
  13.100   1.3668   0.01995   0.01511   0.0173  0.0119  1.0000  -8.8248   0.0000   0.0000   0.0000   0.2216
  13.200   1.3745   0.02016   0.01534   0.0178  0.0119  1.0000  -8.9398   0.0000   0.0000   0.0000   0.2211
  13.300   1.3819   0.02039   0.01558   0.0183  0.0118  1.0000  -9.0536   0.0000   0.0000   0.0000   0.2207
  13.400   1.3890   0.02062   0.01584   0.0188  0.0118  1.0000  -9.1657   0.0000   0.0000   0.0000   0.2202
  13.500   1.3954   0.02087   0.01610   0.0195  0.0117  1.0000  -9.2739   0.0000   0.0000   0.0000   0.2196
  13.600   1.4012   0.02112   0.01638   0.0202  0.0116  1.0000  -9.3783   0.0000   0.0000   0.0000   0.2189
  13.700   1.4065   0.02139   0.01667   0.0211  0.0116  1.0000  -9.4801   0.0000   0.0000   0.0000   0.2183
  13.800   1.4116   0.02167   0.01698   0.0219  0.0115  1.0000  -9.5804   0.0000   0.0000   0.0000   0.2175
  13.900   1.4166   0.02197   0.01730   0.0227  0.0114  1.0000  -9.6794   0.0000   0.0000   0.0000   0.2168
  14.000   1.4213   0.02229   0.01765   0.0235  0.0113  1.0000  -9.7773   0.0000   0.0000   0.0000   0.2162
  14.100   1.4257   0.02263   0.01802   0.0243  0.0113  1.0000  -9.8733   0.0000   0.0000   0.0000   0.2155
  14.200   1.4300   0.02299   0.01841   0.0251  0.0112  1.0000  -9.9685   0.0000   0.0000   0.0000   0.2148
  14.300   1.4342   0.02338   0.01882   0.0259  0.0111  1.0000  -10.0624   0.0000   0.0000   0.0000   0.2141
  14.400   1.4380   0.02378   0.01925   0.0266  0.0110  1.0000  -10.1545   0.0000   0.0000   0.0000   0.2134
  14.500   1.4416   0.02420   0.01971   0.0274  0.0110  1.0000  -10.2451   0.0000   0.0000   0.0000   0.2128
  14.600   1.4450   0.02466   0.02019   0.0281  0.0109  1.0000  -10.3337   0.0000   0.0000   0.0000   0.2121
  14.700   1.4483   0.02513   0.02070   0.0288  0.0108  1.0000  -10.4220   0.0000   0.0000   0.0000   0.2115
  14.800   1.4513   0.02564   0.02125   0.0295  0.0108  1.0000  -10.5079   0.0000   0.0000   0.0000   0.2109
  14.900   1.4541   0.02618   0.02181   0.0301  0.0107  1.0000  -10.5926   0.0000   0.0000   0.0000   0.2103
  15.000   1.4566   0.02674   0.02243   0.0307  0.0107  1.0000  -10.6739   0.0000   0.0000   0.0000   0.2097
  15.100   1.4589   0.02734   0.02306   0.0313  0.0106  1.0000  -10.7548   0.0000   0.0000   0.0000   0.2092
  15.200   1.4610   0.02798   0.02374   0.0318  0.0105  1.0000  -10.8332   0.0000   0.0000   0.0000   0.2086
  15.300   1.4629   0.02866   0.02446   0.0322  0.0105  1.0000  -10.9110   0.0000   0.0000   0.0000   0.2082
  15.400   1.4645   0.02939   0.02522   0.0326  0.0104  1.0000  -10.9857   0.0000   0.0000   0.0000   0.2077
  15.500   1.4660   0.03015   0.02603   0.0330  0.0104  1.0000  -11.0591   0.0000   0.0000   0.0000   0.2073
  15.600   1.4669   0.03097   0.02689   0.0332  0.0103  1.0000  -11.1277   0.0000   0.0000   0.0000   0.2069
  15.700   1.4678   0.03183   0.02779   0.0335  0.0103  1.0000  -11.1957   0.0000   0.0000   0.0000   0.2065
  15.800   1.4682   0.03277   0.02877   0.0336  0.0103  1.0000  -11.2594   0.0000   0.0000   0.0000   0.2062
  15.900   1.4686   0.03374   0.02978   0.0337  0.0102  1.0000  -11.3228   0.0000   0.0000   0.0000   0.2059
  16.000   1.4685   0.03481   0.03089   0.0337  0.0102  1.0000  -11.3814   0.0000   0.0000   0.0000   0.2057
  16.100   1.4683   0.03592   0.03205   0.0336  0.0101  1.0000  -11.4382   0.0000   0.0000   0.0000   0.2056
  16.200   1.4678   0.03711   0.03328   0.0334  0.0101  1.0000  -11.4917   0.0000   0.0000   0.0000   0.2054
  16.300   1.4667   0.03840   0.03462   0.0331  0.0101  1.0000  -11.5397   0.0000   0.0000   0.0000   0.2054
  16.400   1.4654   0.03972   0.03598   0.0328  0.0100  1.0000  -11.5854   0.0000   0.0000   0.0000   0.2053
  16.500   1.4633   0.04117   0.03748   0.0324  0.0100  1.0000  -11.6232   0.0000   0.0000   0.0000   0.2053
  16.600   1.4609   0.04270   0.03907   0.0318  0.0100  1.0000  -11.6574   0.0000   0.0000   0.0000   0.2054
  16.700   1.4583   0.04430   0.04071   0.0313  0.0099  1.0000  -11.6892   0.0000   0.0000   0.0000   0.2055
  16.800   1.4549   0.04606   0.04252   0.0305  0.0099  1.0000  -11.7115   0.0000   0.0000   0.0000   0.2057
  16.900   1.4511   0.04790   0.04441   0.0297  0.0099  1.0000  -11.7301   0.0000   0.0000   0.0000   0.2060
  17.000   1.4471   0.04981   0.04637   0.0289  0.0099  1.0000  -11.7449   0.0000   0.0000   0.0000   0.2063
  17.100   1.4419   0.05192   0.04854   0.0278  0.0099  1.0000  -11.7473   0.0000   0.0000   0.0000   0.2066
  17.200   1.4362   0.05413   0.05080   0.0267  0.0098  1.0000  -11.7442   0.0000   0.0000   0.0000   0.2071
  17.300   1.4303   0.05637   0.05310   0.0256  0.0098  1.0000  -11.7374   0.0000   0.0000   0.0000   0.2075
  17.400   1.4228   0.05885   0.05563   0.0244  0.0098  1.0000  -11.7140   0.0000   0.0000   0.0000   0.2080
  17.500   1.4144   0.06148   0.05832   0.0231  0.0098  1.0000  -11.6810   0.0000   0.0000   0.0000   0.2086
  17.600   1.4060   0.06413   0.06103   0.0217  0.0098  1.0000  -11.6460   0.0000   0.0000   0.0000   0.2092
  17.700   1.3967   0.06697   0.06392   0.0203  0.0098  1.0000  -11.5999   0.0000   0.0000   0.0000   0.2099
  17.800   1.3860   0.07008   0.06709   0.0187  0.0098  1.0000  -11.5371   0.0000   0.0000   0.0000   0.2107
  17.900   1.3751   0.07324   0.07030   0.0170  0.0098  1.0000  -11.4708   0.0000   0.0000   0.0000   0.2115
  18.000   1.3643   0.07638   0.07350   0.0154  0.0098  1.0000  -11.4036   0.0000   0.0000   0.0000   0.2124
  18.100   1.3513   0.07996   0.07714   0.0135  0.0098  1.0000  -11.3100   0.0000   0.0000   0.0000   0.2134
  18.200   1.3379   0.08358   0.08083   0.0116  0.0098  1.0000  -11.2096   0.0000   0.0000   0.0000   0.2145
  18.300   1.3253   0.08702   0.08432   0.0099  0.0098  1.0000  -11.1174   0.0000   0.0000   0.0000   0.2155
  18.400   1.3102   0.09097   0.08833   0.0078  0.0099  1.0000  -10.9942   0.0000   0.0000   0.0000   0.2167
  18.500   1.2951   0.09499   0.09241   0.0057  0.0099  1.0000  -10.8671   0.0000   0.0000   0.0000   0.2181
  18.600   1.2820   0.09868   0.09615   0.0038  0.0099  1.0000  -10.7605   0.0000   0.0000   0.0000   0.2193
  18.700   1.2656   0.10303   0.10057   0.0015  0.0099  1.0000  -10.6113   0.0000   0.0000   0.0000   0.2209
  18.800   1.2511   0.10709   0.10468  -0.0006  0.0099  1.0000  -10.4797   0.0000   0.0000   0.0000   0.2224
  18.900   1.2363   0.11124   0.10888  -0.0028  0.0100  1.0000  -10.3415   0.0000   0.0000   0.0000   0.2240
  19.000   1.2200   0.11569   0.11340  -0.0052  0.0100  1.0000  -10.1817   0.0000   0.0000   0.0000   0.2258
  19.100   1.2065   0.11957   0.11733  -0.0072  0.0100  1.0000  -10.0533   0.0000   0.0000   0.0000   0.2273
  19.200   1.1895   0.12421   0.12202  -0.0097  0.0100  1.0000  -9.8755   0.0000   0.0000   0.0000   0.2293
  19.300   1.1769   0.12808   0.12594  -0.0118  0.0100  1.0000  -9.7488   0.0000   0.0000   0.0000   0.2310
  19.400   1.1599   0.13292   0.13083  -0.0144  0.0101  1.0000  -9.5589   0.0000   0.0000   0.0000   0.2333
  19.500   1.1478   0.13686   0.13482  -0.0166  0.0101  1.0000  -9.4273   0.0000   0.0000   0.0000   0.2351
  19.600   1.1306   0.14191   0.13993  -0.0194  0.0101  1.0000  -9.2206   0.0000   0.0000   0.0000   0.2377
  19.700   1.1183   0.14601   0.14408  -0.0217  0.0101  1.0000  -9.0759   0.0000   0.0000   0.0000   0.2398
  19.800   1.1001   0.15148   0.14960  -0.0248  0.0101  1.0000  -8.8384   0.0000   0.0000   0.0000   0.2429
  19.900   1.0872   0.15589   0.15406  -0.0273  0.0101  1.0000  -8.6691   0.0000   0.0000   0.0000   0.2453
  20.000   1.0650   0.16246   0.16070  -0.0310  0.0102  1.0000  -8.3507   0.0000   0.0000   0.0000   0.2494


