xflr5 v6.61

 Calculated polar for: RG15

 1 1 Reynolds number fixed          Mach number fixed         

 xtrf =   1.000 (top)        1.000 (bottom)
 Mach =   0.000     Re =     1.000 e 6     Ncrit =   9.000

  alpha     CL        CD       CDp       Cm    Top Xtr Bot Xtr   Cpmin    Chinge    XCp    
 ------- -------- --------- --------- -------- ------- ------- -------- --------- ---------
  -2.000   0.0683   0.00656   0.00116  -0.0653  0.8901  0.0799  -0.9392   0.0000   0.0000   0.0000   1.2099
  -1.500   0.1229   0.00631   0.00098  -0.0650  0.8581  0.1286  -0.6303   0.0000   0.0000   0.0000   0.7802
  -1.000   0.1772   0.00634   0.00089  -0.0645  0.8213  0.1308  -0.3930   0.0000   0.0000   0.0000   0.6142
  -0.500   0.2305   0.00629   0.00083  -0.0639  0.7808  0.1692  -0.4391   0.0000   0.0000   0.0000   0.5269
   0.000   0.2749   0.00466   0.00096  -0.0624  0.7405  0.7518  -0.4834   0.0000   0.0000   0.0000   0.4762
   0.500   0.3281   0.00481   0.00095  -0.0617  0.6945  0.7764  -0.5398   0.0000   0.0000   0.0000   0.4368
   1.000   0.3716   0.00568   0.00104  -0.0592  0.4955  0.8009  -0.5986   0.0000   0.0000   0.0000   0.4077
   1.500   0.4329   0.00517   0.00109  -0.0601  0.5952  0.8287  -0.6808   0.0000   0.0000   0.0000   0.3870
   2.000   0.4850   0.00538   0.00119  -0.0593  0.5482  0.8573  -0.7748   0.0000   0.0000   0.0000   0.3701
   2.500   0.5345   0.00563   0.00134  -0.0579  0.4900  0.8961  -0.8790   0.0000   0.0000   0.0000   0.3558
   3.000   0.5795   0.00611   0.00153  -0.0556  0.3966  0.9423  -1.0094   0.0000   0.0000   0.0000   0.3432
   3.500   0.6391   0.00685   0.00180  -0.0571  0.2834  1.0000  -1.1862   0.0000   0.0000   0.0000   0.3361
   4.000   0.6874   0.00780   0.00220  -0.0562  0.1763  1.0000  -1.3796   0.0000   0.0000   0.0000   0.3282
   4.500   0.7383   0.00848   0.00272  -0.0557  0.1232  1.0000  -1.7004   0.0000   0.0000   0.0000   0.3214
   5.000   0.7892   0.00914   0.00317  -0.0551  0.0806  1.0000  -2.0696   0.0000   0.0000   0.0000   0.3155
   5.500   0.8402   0.00978   0.00366  -0.0546  0.0524  1.0000  -2.5675   0.0000   0.0000   0.0000   0.3101
   6.000   0.8905   0.01049   0.00422  -0.0540  0.0299  1.0000  -3.2289   0.0000   0.0000   0.0000   0.3053
   6.500   0.9393   0.01137   0.00494  -0.0531  0.0092  1.0000  -3.9198   0.0000   0.0000   0.0000   0.3007
   7.000   0.9890   0.01214   0.00567  -0.0522  0.0049  1.0000  -4.5475   0.0000   0.0000   0.0000   0.2964
   7.500   1.0372   0.01316   0.00707  -0.0509  0.0041  1.0000  -5.0550   0.0000   0.0000   0.0000   0.2921
   8.000   1.0829   0.01442   0.00857  -0.0492  0.0042  1.0000  -5.6602   0.0000   0.0000   0.0000   0.2879
   8.500   1.1244   0.01612   0.01056  -0.0469  0.0044  1.0000  -6.2313   0.0000   0.0000   0.0000   0.2836
   9.000   1.1569   0.01902   0.01390  -0.0430  0.0049  1.0000  -6.6862   0.0000   0.0000   0.0000   0.2784
   9.500   1.1774   0.02463   0.02017  -0.0375  0.0057  1.0000  -6.8859   0.0000   0.0000   0.0000   0.2725
  10.000   1.1830   0.03297   0.02928  -0.0309  0.0068  1.0000  -6.8340   0.0000   0.0000   0.0000   0.2663
  10.500   1.1616   0.04148   0.03848  -0.0228  0.0076  1.0000  -6.6571   0.0000   0.0000   0.0000   0.2593
  11.000   1.1204   0.04859   0.04603  -0.0150  0.0079  1.0000  -6.4786   0.0000   0.0000   0.0000   0.2526
  11.500   1.0778   0.05717   0.05497  -0.0137  0.0081  1.0000  -6.3050   0.0000   0.0000   0.0000   0.2511
  12.000   1.0392   0.06814   0.06623  -0.0187  0.0081  1.0000  -6.1351   0.0000   0.0000   0.0000   0.2556


